REMARK  Name = ../refined-set-2016/4cg8/4cg8_pocket.pdb
REMARK  240 active torsions:
REMARK  status: ('A' for Active; 'I' for Inactive)
REMARK    1  A    between atoms: _1  and  _3
REMARK    2  A    between atoms: _3  and  _4
REMARK    3  A    between atoms: _3  and  _6
REMARK    4  A    between atoms: _6  and  _7
REMARK    5  A    between atoms: _7  and  _8
REMARK    6  A    between atoms: _8  and  _9
REMARK    7  A    between atoms: _18  and  _20
REMARK    8  A    between atoms: _20  and  _21
REMARK    9  A    between atoms: _20  and  _23
REMARK   10  A    between atoms: _23  and  _24
REMARK   11  A    between atoms: _26  and  _28
REMARK   12  A    between atoms: _28  and  _29
REMARK   13  A    between atoms: _28  and  _31
REMARK   14  A    between atoms: _31  and  _32
REMARK   15  A    between atoms: _37  and  _39
REMARK   16  A    between atoms: _39  and  _40
REMARK   17  A    between atoms: _39  and  _42
REMARK   18  A    between atoms: _42  and  _43
REMARK   19  A    between atoms: _46  and  _48
REMARK   20  A    between atoms: _48  and  _49
REMARK   21  A    between atoms: _48  and  _51
REMARK   22  A    between atoms: _51  and  _52
REMARK   23  A    between atoms: _62  and  _64
REMARK   24  A    between atoms: _64  and  _65
REMARK   25  A    between atoms: _64  and  _67
REMARK   26  A    between atoms: _67  and  _68
REMARK   27  A    between atoms: _71  and  _73
REMARK   28  A    between atoms: _73  and  _74
REMARK   29  A    between atoms: _76  and  _78
REMARK   30  A    between atoms: _78  and  _79
REMARK   31  A    between atoms: _78  and  _81
REMARK   32  A    between atoms: _81  and  _82
REMARK   33  A    between atoms: _85  and  _87
REMARK   34  A    between atoms: _87  and  _88
REMARK   35  A    between atoms: _87  and  _90
REMARK   36  A    between atoms: _90  and  _91
REMARK   37  A    between atoms: _91  and  _92
REMARK   38  A    between atoms: _94  and  _96
REMARK   39  A    between atoms: _96  and  _97
REMARK   40  A    between atoms: _96  and  _99
REMARK   41  A    between atoms: _99  and  _100
REMARK   42  A    between atoms: _100  and  _101
REMARK   43  A    between atoms: _104  and  _106
REMARK   44  A    between atoms: _106  and  _107
REMARK   45  A    between atoms: _106  and  _109
REMARK   46  A    between atoms: _109  and  _110
REMARK   47  A    between atoms: _110  and  _111
REMARK   48  A    between atoms: _111  and  _112
REMARK   49  A    between atoms: _112  and  _113
REMARK   50  A    between atoms: _117  and  _119
REMARK   51  A    between atoms: _119  and  _120
REMARK   52  A    between atoms: _119  and  _122
REMARK   53  A    between atoms: _122  and  _123
REMARK   54  A    between atoms: _128  and  _129
REMARK   55  A    between atoms: _131  and  _133
REMARK   56  A    between atoms: _133  and  _134
REMARK   57  A    between atoms: _133  and  _136
REMARK   58  A    between atoms: _136  and  _137
REMARK   59  A    between atoms: _140  and  _142
REMARK   60  A    between atoms: _142  and  _143
REMARK   61  A    between atoms: _142  and  _145
REMARK   62  A    between atoms: _145  and  _146
REMARK   63  A    between atoms: _151  and  _153
REMARK   64  A    between atoms: _153  and  _154
REMARK   65  A    between atoms: _153  and  _156
REMARK   66  A    between atoms: _156  and  _157
REMARK   67  A    between atoms: _162  and  _164
REMARK   68  A    between atoms: _164  and  _165
REMARK   69  A    between atoms: _164  and  _167
REMARK   70  A    between atoms: _167  and  _168
REMARK   71  A    between atoms: _171  and  _173
REMARK   72  A    between atoms: _173  and  _174
REMARK   73  A    between atoms: _173  and  _176
REMARK   74  A    between atoms: _178  and  _180
REMARK   75  A    between atoms: _180  and  _181
REMARK   76  A    between atoms: _180  and  _183
REMARK   77  A    between atoms: _183  and  _184
REMARK   78  A    between atoms: _184  and  _185
REMARK   79  A    between atoms: _190  and  _192
REMARK   80  A    between atoms: _192  and  _193
REMARK   81  A    between atoms: _192  and  _195
REMARK   82  A    between atoms: _195  and  _196
REMARK   83  A    between atoms: _196  and  _197
REMARK   84  A    between atoms: _200  and  _202
REMARK   85  A    between atoms: _202  and  _203
REMARK   86  A    between atoms: _205  and  _207
REMARK   87  A    between atoms: _207  and  _208
REMARK   88  A    between atoms: _207  and  _210
REMARK   89  A    between atoms: _210  and  _211
REMARK   90  A    between atoms: _216  and  _218
REMARK   91  A    between atoms: _218  and  _219
REMARK   92  A    between atoms: _218  and  _221
REMARK   93  A    between atoms: _221  and  _222
REMARK   94  A    between atoms: _225  and  _227
REMARK   95  A    between atoms: _227  and  _228
REMARK   96  A    between atoms: _227  and  _230
REMARK   97  A    between atoms: _230  and  _231
REMARK   98  A    between atoms: _231  and  _232
REMARK   99  A    between atoms: _235  and  _237
REMARK  100  A    between atoms: _237  and  _238
REMARK  101  A    between atoms: _237  and  _240
REMARK  102  A    between atoms: _240  and  _241
REMARK  103  A    between atoms: _246  and  _247
REMARK  104  A    between atoms: _249  and  _251
REMARK  105  A    between atoms: _251  and  _252
REMARK  106  A    between atoms: _251  and  _254
REMARK  107  A    between atoms: _254  and  _255
REMARK  108  A    between atoms: _257  and  _259
REMARK  109  A    between atoms: _259  and  _260
REMARK  110  A    between atoms: _259  and  _262
REMARK  111  A    between atoms: _262  and  _263
REMARK  112  A    between atoms: _268  and  _270
REMARK  113  A    between atoms: _270  and  _271
REMARK  114  A    between atoms: _270  and  _273
REMARK  115  A    between atoms: _273  and  _274
REMARK  116  A    between atoms: _280  and  _282
REMARK  117  A    between atoms: _282  and  _283
REMARK  118  A    between atoms: _282  and  _285
REMARK  119  A    between atoms: _285  and  _286
REMARK  120  A    between atoms: _291  and  _293
REMARK  121  A    between atoms: _293  and  _294
REMARK  122  A    between atoms: _293  and  _296
REMARK  123  A    between atoms: _296  and  _297
REMARK  124  A    between atoms: _297  and  _298
REMARK  125  A    between atoms: _301  and  _303
REMARK  126  A    between atoms: _303  and  _304
REMARK  127  A    between atoms: _303  and  _306
REMARK  128  A    between atoms: _306  and  _307
REMARK  129  A    between atoms: _312  and  _313
REMARK  130  A    between atoms: _315  and  _317
REMARK  131  A    between atoms: _317  and  _318
REMARK  132  A    between atoms: _317  and  _320
REMARK  133  A    between atoms: _320  and  _321
REMARK  134  A    between atoms: _324  and  _326
REMARK  135  A    between atoms: _326  and  _327
REMARK  136  A    between atoms: _326  and  _329
REMARK  137  A    between atoms: _329  and  _330
REMARK  138  A    between atoms: _335  and  _336
REMARK  139  A    between atoms: _338  and  _340
REMARK  140  A    between atoms: _340  and  _341
REMARK  141  A    between atoms: _340  and  _343
REMARK  142  A    between atoms: _343  and  _344
REMARK  143  A    between atoms: _346  and  _348
REMARK  144  A    between atoms: _348  and  _349
REMARK  145  A    between atoms: _348  and  _351
REMARK  146  A    between atoms: _351  and  _352
REMARK  147  A    between atoms: _357  and  _358
REMARK  148  A    between atoms: _360  and  _362
REMARK  149  A    between atoms: _362  and  _363
REMARK  150  A    between atoms: _362  and  _365
REMARK  151  A    between atoms: _365  and  _366
REMARK  152  A    between atoms: _372  and  _374
REMARK  153  A    between atoms: _374  and  _375
REMARK  154  A    between atoms: _374  and  _377
REMARK  155  A    between atoms: _377  and  _378
REMARK  156  A    between atoms: _384  and  _386
REMARK  157  A    between atoms: _386  and  _387
REMARK  158  A    between atoms: _390  and  _392
REMARK  159  A    between atoms: _392  and  _393
REMARK  160  A    between atoms: _392  and  _395
REMARK  161  A    between atoms: _395  and  _396
REMARK  162  A    between atoms: _398  and  _400
REMARK  163  A    between atoms: _400  and  _401
REMARK  164  A    between atoms: _400  and  _403
REMARK  165  A    between atoms: _403  and  _404
REMARK  166  A    between atoms: _410  and  _412
REMARK  167  A    between atoms: _412  and  _413
REMARK  168  A    between atoms: _412  and  _415
REMARK  169  A    between atoms: _415  and  _416
REMARK  170  A    between atoms: _419  and  _421
REMARK  171  A    between atoms: _421  and  _422
REMARK  172  A    between atoms: _421  and  _424
REMARK  173  A    between atoms: _424  and  _425
REMARK  174  A    between atoms: _435  and  _437
REMARK  175  A    between atoms: _437  and  _438
REMARK  176  A    between atoms: _440  and  _442
REMARK  177  A    between atoms: _442  and  _443
REMARK  178  A    between atoms: _442  and  _445
REMARK  179  A    between atoms: _445  and  _446
REMARK  180  A    between atoms: _449  and  _451
REMARK  181  A    between atoms: _451  and  _452
REMARK  182  A    between atoms: _451  and  _454
REMARK  183  A    between atoms: _454  and  _455
REMARK  184  A    between atoms: _465  and  _467
REMARK  185  A    between atoms: _467  and  _468
REMARK  186  A    between atoms: _467  and  _470
REMARK  187  A    between atoms: _470  and  _471
REMARK  188  A    between atoms: _473  and  _475
REMARK  189  A    between atoms: _475  and  _476
REMARK  190  A    between atoms: _475  and  _478
REMARK  191  A    between atoms: _478  and  _479
REMARK  192  A    between atoms: _482  and  _484
REMARK  193  A    between atoms: _484  and  _485
REMARK  194  A    between atoms: _484  and  _487
REMARK  195  A    between atoms: _490  and  _492
REMARK  196  A    between atoms: _492  and  _493
REMARK  197  A    between atoms: _492  and  _495
REMARK  198  A    between atoms: _495  and  _496
REMARK  199  A    between atoms: _496  and  _497
REMARK  200  A    between atoms: _502  and  _504
REMARK  201  A    between atoms: _504  and  _505
REMARK  202  A    between atoms: _504  and  _507
REMARK  203  A    between atoms: _507  and  _508
REMARK  204  A    between atoms: _510  and  _512
REMARK  205  A    between atoms: _512  and  _513
REMARK  206  A    between atoms: _512  and  _515
REMARK  207  A    between atoms: _515  and  _516
REMARK  208  A    between atoms: _518  and  _520
REMARK  209  A    between atoms: _520  and  _521
REMARK  210  A    between atoms: _520  and  _523
REMARK  211  A    between atoms: _523  and  _524
REMARK  212  A    between atoms: _527  and  _529
REMARK  213  A    between atoms: _529  and  _530
REMARK  214  A    between atoms: _529  and  _532
REMARK  215  A    between atoms: _532  and  _533
REMARK  216  A    between atoms: _533  and  _534
REMARK  217  A    between atoms: _537  and  _539
REMARK  218  A    between atoms: _539  and  _540
REMARK  219  A    between atoms: _539  and  _542
REMARK  220  A    between atoms: _542  and  _543
REMARK  221  A    between atoms: _549  and  _551
REMARK  222  A    between atoms: _551  and  _552
REMARK  223  A    between atoms: _554  and  _556
REMARK  224  A    between atoms: _556  and  _557
REMARK  225  A    between atoms: _556  and  _559
REMARK  226  A    between atoms: _559  and  _560
REMARK  227  A    between atoms: _565  and  _566
REMARK  228  A    between atoms: _568  and  _570
REMARK  229  A    between atoms: _570  and  _571
REMARK  230  A    between atoms: _570  and  _573
REMARK  231  A    between atoms: _573  and  _574
REMARK  232  A    between atoms: _579  and  _580
REMARK  233  A    between atoms: _582  and  _584
REMARK  234  A    between atoms: _584  and  _585
REMARK  235  A    between atoms: _588  and  _590
REMARK  236  A    between atoms: _590  and  _591
REMARK  237  A    between atoms: _590  and  _593
REMARK  238  A    between atoms: _593  and  _594
REMARK  239  A    between atoms: _594  and  _595
REMARK  240  A    between atoms: _595  and  _596
REMARK                            x       y       z     vdW  Elec       q    Type
REMARK                         _______ _______ _______ _____ _____    ______ ____
ROOT
ATOM      1  NE  ARG A   1      19.619 -11.635  -5.046  0.00  0.00    -0.265 N 
ATOM      2  CZ  ARG A   1      19.310 -12.765  -4.413  0.00  0.00    +0.342 C 
ATOM      3  NH2 ARG A   1      18.064 -12.993  -4.019  0.00  0.00    -0.292 N 
ATOM      4 HH21 ARG A   1      17.828 -13.877  -3.525  0.00  0.00    +0.255 HD
ATOM      5 HH22 ARG A   1      17.323 -12.287  -4.204  0.00  0.00    +0.255 HD
ATOM      6  NH1 ARG A   1      20.252 -13.667  -4.158  0.00  0.00    -0.292 N 
ATOM      7 HH11 ARG A   1      20.008 -14.549  -3.663  0.00  0.00    +0.255 HD
ATOM      8 HH12 ARG A   1      21.234 -13.491  -4.453  0.00  0.00    +0.255 HD
ATOM      9  HE  ARG A   1      20.611 -11.492  -5.325  0.00  0.00    +0.259 HD
ENDROOT
BRANCH   1  10
ATOM     10  CD  ARG A   1      18.658 -10.579  -5.377  0.00  0.00    +0.174 C 
BRANCH  10  11
ATOM     11  CG  ARG A   1      18.723 -10.152  -6.838  0.00  0.00    +0.045 C 
BRANCH  11  12
ATOM     12  CB  ARG A   1      18.390 -11.283  -7.809  0.00  0.00    +0.029 C 
BRANCH  12  13
ATOM     13  CA  ARG A   1      18.488 -10.875  -9.286  0.00  0.00    +0.133 C 
BRANCH  13  14
ATOM     14  N   ARG A   1      18.066 -11.955 -10.163  0.00  0.00    -0.239 NA
ATOM     15  H   ARG A   1      18.753 -12.695 -10.409  0.00  0.00    +0.142 HD
ENDBRANCH  13  14
BRANCH  13  16
ATOM     16  C   ARG A   1      19.916 -10.483  -9.648  0.00  0.00    +0.224 C 
ATOM     17  O   ARG A   1      20.793 -11.341  -9.759  0.00  0.00    -0.287 OA
ENDBRANCH  13  16
ENDBRANCH  12  13
ENDBRANCH  11  12
ENDBRANCH  10  11
ENDBRANCH   1  10
TORSDOF 6
REMARK  Name = ../refined-set-2016/4cg8/4cg8_pocket.pdb
REMARK  240 active torsions:
REMARK  status: ('A' for Active; 'I' for Inactive)
REMARK    1  A    between atoms: _1  and  _3
REMARK    2  A    between atoms: _3  and  _4
REMARK    3  A    between atoms: _3  and  _6
REMARK    4  A    between atoms: _6  and  _7
REMARK    5  A    between atoms: _7  and  _8
REMARK    6  A    between atoms: _8  and  _9
REMARK    7  A    between atoms: _18  and  _20
REMARK    8  A    between atoms: _20  and  _21
REMARK    9  A    between atoms: _20  and  _23
REMARK   10  A    between atoms: _23  and  _24
REMARK   11  A    between atoms: _26  and  _28
REMARK   12  A    between atoms: _28  and  _29
REMARK   13  A    between atoms: _28  and  _31
REMARK   14  A    between atoms: _31  and  _32
REMARK   15  A    between atoms: _37  and  _39
REMARK   16  A    between atoms: _39  and  _40
REMARK   17  A    between atoms: _39  and  _42
REMARK   18  A    between atoms: _42  and  _43
REMARK   19  A    between atoms: _46  and  _48
REMARK   20  A    between atoms: _48  and  _49
REMARK   21  A    between atoms: _48  and  _51
REMARK   22  A    between atoms: _51  and  _52
REMARK   23  A    between atoms: _62  and  _64
REMARK   24  A    between atoms: _64  and  _65
REMARK   25  A    between atoms: _64  and  _67
REMARK   26  A    between atoms: _67  and  _68
REMARK   27  A    between atoms: _71  and  _73
REMARK   28  A    between atoms: _73  and  _74
REMARK   29  A    between atoms: _76  and  _78
REMARK   30  A    between atoms: _78  and  _79
REMARK   31  A    between atoms: _78  and  _81
REMARK   32  A    between atoms: _81  and  _82
REMARK   33  A    between atoms: _85  and  _87
REMARK   34  A    between atoms: _87  and  _88
REMARK   35  A    between atoms: _87  and  _90
REMARK   36  A    between atoms: _90  and  _91
REMARK   37  A    between atoms: _91  and  _92
REMARK   38  A    between atoms: _94  and  _96
REMARK   39  A    between atoms: _96  and  _97
REMARK   40  A    between atoms: _96  and  _99
REMARK   41  A    between atoms: _99  and  _100
REMARK   42  A    between atoms: _100  and  _101
REMARK   43  A    between atoms: _104  and  _106
REMARK   44  A    between atoms: _106  and  _107
REMARK   45  A    between atoms: _106  and  _109
REMARK   46  A    between atoms: _109  and  _110
REMARK   47  A    between atoms: _110  and  _111
REMARK   48  A    between atoms: _111  and  _112
REMARK   49  A    between atoms: _112  and  _113
REMARK   50  A    between atoms: _117  and  _119
REMARK   51  A    between atoms: _119  and  _120
REMARK   52  A    between atoms: _119  and  _122
REMARK   53  A    between atoms: _122  and  _123
REMARK   54  A    between atoms: _128  and  _129
REMARK   55  A    between atoms: _131  and  _133
REMARK   56  A    between atoms: _133  and  _134
REMARK   57  A    between atoms: _133  and  _136
REMARK   58  A    between atoms: _136  and  _137
REMARK   59  A    between atoms: _140  and  _142
REMARK   60  A    between atoms: _142  and  _143
REMARK   61  A    between atoms: _142  and  _145
REMARK   62  A    between atoms: _145  and  _146
REMARK   63  A    between atoms: _151  and  _153
REMARK   64  A    between atoms: _153  and  _154
REMARK   65  A    between atoms: _153  and  _156
REMARK   66  A    between atoms: _156  and  _157
REMARK   67  A    between atoms: _162  and  _164
REMARK   68  A    between atoms: _164  and  _165
REMARK   69  A    between atoms: _164  and  _167
REMARK   70  A    between atoms: _167  and  _168
REMARK   71  A    between atoms: _171  and  _173
REMARK   72  A    between atoms: _173  and  _174
REMARK   73  A    between atoms: _173  and  _176
REMARK   74  A    between atoms: _178  and  _180
REMARK   75  A    between atoms: _180  and  _181
REMARK   76  A    between atoms: _180  and  _183
REMARK   77  A    between atoms: _183  and  _184
REMARK   78  A    between atoms: _184  and  _185
REMARK   79  A    between atoms: _190  and  _192
REMARK   80  A    between atoms: _192  and  _193
REMARK   81  A    between atoms: _192  and  _195
REMARK   82  A    between atoms: _195  and  _196
REMARK   83  A    between atoms: _196  and  _197
REMARK   84  A    between atoms: _200  and  _202
REMARK   85  A    between atoms: _202  and  _203
REMARK   86  A    between atoms: _205  and  _207
REMARK   87  A    between atoms: _207  and  _208
REMARK   88  A    between atoms: _207  and  _210
REMARK   89  A    between atoms: _210  and  _211
REMARK   90  A    between atoms: _216  and  _218
REMARK   91  A    between atoms: _218  and  _219
REMARK   92  A    between atoms: _218  and  _221
REMARK   93  A    between atoms: _221  and  _222
REMARK   94  A    between atoms: _225  and  _227
REMARK   95  A    between atoms: _227  and  _228
REMARK   96  A    between atoms: _227  and  _230
REMARK   97  A    between atoms: _230  and  _231
REMARK   98  A    between atoms: _231  and  _232
REMARK   99  A    between atoms: _235  and  _237
REMARK  100  A    between atoms: _237  and  _238
REMARK  101  A    between atoms: _237  and  _240
REMARK  102  A    between atoms: _240  and  _241
REMARK  103  A    between atoms: _246  and  _247
REMARK  104  A    between atoms: _249  and  _251
REMARK  105  A    between atoms: _251  and  _252
REMARK  106  A    between atoms: _251  and  _254
REMARK  107  A    between atoms: _254  and  _255
REMARK  108  A    between atoms: _257  and  _259
REMARK  109  A    between atoms: _259  and  _260
REMARK  110  A    between atoms: _259  and  _262
REMARK  111  A    between atoms: _262  and  _263
REMARK  112  A    between atoms: _268  and  _270
REMARK  113  A    between atoms: _270  and  _271
REMARK  114  A    between atoms: _270  and  _273
REMARK  115  A    between atoms: _273  and  _274
REMARK  116  A    between atoms: _280  and  _282
REMARK  117  A    between atoms: _282  and  _283
REMARK  118  A    between atoms: _282  and  _285
REMARK  119  A    between atoms: _285  and  _286
REMARK  120  A    between atoms: _291  and  _293
REMARK  121  A    between atoms: _293  and  _294
REMARK  122  A    between atoms: _293  and  _296
REMARK  123  A    between atoms: _296  and  _297
REMARK  124  A    between atoms: _297  and  _298
REMARK  125  A    between atoms: _301  and  _303
REMARK  126  A    between atoms: _303  and  _304
REMARK  127  A    between atoms: _303  and  _306
REMARK  128  A    between atoms: _306  and  _307
REMARK  129  A    between atoms: _312  and  _313
REMARK  130  A    between atoms: _315  and  _317
REMARK  131  A    between atoms: _317  and  _318
REMARK  132  A    between atoms: _317  and  _320
REMARK  133  A    between atoms: _320  and  _321
REMARK  134  A    between atoms: _324  and  _326
REMARK  135  A    between atoms: _326  and  _327
REMARK  136  A    between atoms: _326  and  _329
REMARK  137  A    between atoms: _329  and  _330
REMARK  138  A    between atoms: _335  and  _336
REMARK  139  A    between atoms: _338  and  _340
REMARK  140  A    between atoms: _340  and  _341
REMARK  141  A    between atoms: _340  and  _343
REMARK  142  A    between atoms: _343  and  _344
REMARK  143  A    between atoms: _346  and  _348
REMARK  144  A    between atoms: _348  and  _349
REMARK  145  A    between atoms: _348  and  _351
REMARK  146  A    between atoms: _351  and  _352
REMARK  147  A    between atoms: _357  and  _358
REMARK  148  A    between atoms: _360  and  _362
REMARK  149  A    between atoms: _362  and  _363
REMARK  150  A    between atoms: _362  and  _365
REMARK  151  A    between atoms: _365  and  _366
REMARK  152  A    between atoms: _372  and  _374
REMARK  153  A    between atoms: _374  and  _375
REMARK  154  A    between atoms: _374  and  _377
REMARK  155  A    between atoms: _377  and  _378
REMARK  156  A    between atoms: _384  and  _386
REMARK  157  A    between atoms: _386  and  _387
REMARK  158  A    between atoms: _390  and  _392
REMARK  159  A    between atoms: _392  and  _393
REMARK  160  A    between atoms: _392  and  _395
REMARK  161  A    between atoms: _395  and  _396
REMARK  162  A    between atoms: _398  and  _400
REMARK  163  A    between atoms: _400  and  _401
REMARK  164  A    between atoms: _400  and  _403
REMARK  165  A    between atoms: _403  and  _404
REMARK  166  A    between atoms: _410  and  _412
REMARK  167  A    between atoms: _412  and  _413
REMARK  168  A    between atoms: _412  and  _415
REMARK  169  A    between atoms: _415  and  _416
REMARK  170  A    between atoms: _419  and  _421
REMARK  171  A    between atoms: _421  and  _422
REMARK  172  A    between atoms: _421  and  _424
REMARK  173  A    between atoms: _424  and  _425
REMARK  174  A    between atoms: _435  and  _437
REMARK  175  A    between atoms: _437  and  _438
REMARK  176  A    between atoms: _440  and  _442
REMARK  177  A    between atoms: _442  and  _443
REMARK  178  A    between atoms: _442  and  _445
REMARK  179  A    between atoms: _445  and  _446
REMARK  180  A    between atoms: _449  and  _451
REMARK  181  A    between atoms: _451  and  _452
REMARK  182  A    between atoms: _451  and  _454
REMARK  183  A    between atoms: _454  and  _455
REMARK  184  A    between atoms: _465  and  _467
REMARK  185  A    between atoms: _467  and  _468
REMARK  186  A    between atoms: _467  and  _470
REMARK  187  A    between atoms: _470  and  _471
REMARK  188  A    between atoms: _473  and  _475
REMARK  189  A    between atoms: _475  and  _476
REMARK  190  A    between atoms: _475  and  _478
REMARK  191  A    between atoms: _478  and  _479
REMARK  192  A    between atoms: _482  and  _484
REMARK  193  A    between atoms: _484  and  _485
REMARK  194  A    between atoms: _484  and  _487
REMARK  195  A    between atoms: _490  and  _492
REMARK  196  A    between atoms: _492  and  _493
REMARK  197  A    between atoms: _492  and  _495
REMARK  198  A    between atoms: _495  and  _496
REMARK  199  A    between atoms: _496  and  _497
REMARK  200  A    between atoms: _502  and  _504
REMARK  201  A    between atoms: _504  and  _505
REMARK  202  A    between atoms: _504  and  _507
REMARK  203  A    between atoms: _507  and  _508
REMARK  204  A    between atoms: _510  and  _512
REMARK  205  A    between atoms: _512  and  _513
REMARK  206  A    between atoms: _512  and  _515
REMARK  207  A    between atoms: _515  and  _516
REMARK  208  A    between atoms: _518  and  _520
REMARK  209  A    between atoms: _520  and  _521
REMARK  210  A    between atoms: _520  and  _523
REMARK  211  A    between atoms: _523  and  _524
REMARK  212  A    between atoms: _527  and  _529
REMARK  213  A    between atoms: _529  and  _530
REMARK  214  A    between atoms: _529  and  _532
REMARK  215  A    between atoms: _532  and  _533
REMARK  216  A    between atoms: _533  and  _534
REMARK  217  A    between atoms: _537  and  _539
REMARK  218  A    between atoms: _539  and  _540
REMARK  219  A    between atoms: _539  and  _542
REMARK  220  A    between atoms: _542  and  _543
REMARK  221  A    between atoms: _549  and  _551
REMARK  222  A    between atoms: _551  and  _552
REMARK  223  A    between atoms: _554  and  _556
REMARK  224  A    between atoms: _556  and  _557
REMARK  225  A    between atoms: _556  and  _559
REMARK  226  A    between atoms: _559  and  _560
REMARK  227  A    between atoms: _565  and  _566
REMARK  228  A    between atoms: _568  and  _570
REMARK  229  A    between atoms: _570  and  _571
REMARK  230  A    between atoms: _570  and  _573
REMARK  231  A    between atoms: _573  and  _574
REMARK  232  A    between atoms: _579  and  _580
REMARK  233  A    between atoms: _582  and  _584
REMARK  234  A    between atoms: _584  and  _585
REMARK  235  A    between atoms: _588  and  _590
REMARK  236  A    between atoms: _590  and  _591
REMARK  237  A    between atoms: _590  and  _593
REMARK  238  A    between atoms: _593  and  _594
REMARK  239  A    between atoms: _594  and  _595
REMARK  240  A    between atoms: _595  and  _596
REMARK                            x       y       z     vdW  Elec       q    Type
REMARK                         _______ _______ _______ _____ _____    ______ ____
ROOT
ATOM      1  C   SER A   1      25.800 -11.347  -4.743  0.00  0.00    +0.241 C 
ATOM      2  N   ASN A   2      25.943 -12.674  -4.745  0.00  0.00    -0.298 N 
ATOM      3  H   ASN A   2      26.905 -13.070  -4.753  0.00  0.00    +0.150 HD
ATOM      4  O   SER A   1      24.700 -10.781  -4.748  0.00  0.00    -0.274 OA
ENDROOT
BRANCH   1   5
ATOM      5  CA  SER A   1      27.088 -10.527  -4.739  0.00  0.00    +0.174 C 
BRANCH   5   6
ATOM      6  N   SER A   1      26.840  -9.170  -5.227  0.00  0.00    -0.236 NA
ATOM      7  H   SER A   1      25.937  -8.712  -4.988  0.00  0.00    +0.142 HD
ENDBRANCH   5   6
BRANCH   5   8
ATOM      8  CB  SER A   1      27.705 -10.497  -3.334  0.00  0.00    +0.163 C 
BRANCH   8   9
ATOM      9  OG  SER A   1      26.777 -10.021  -2.372  0.00  0.00    -0.380 OA
ATOM     10  H   SER A   1      27.204 -10.014  -1.479  0.00  0.00    +0.211 HD
ENDBRANCH   8   9
ENDBRANCH   5   8
ENDBRANCH   1   5
BRANCH   2  11
ATOM     11  CA  ASN A   2      24.801 -13.601  -4.736  0.00  0.00    +0.146 C 
BRANCH  11  12
ATOM     12  C   ASN A   2      23.813 -13.332  -5.890  0.00  0.00    +0.227 C 
ATOM     13  O   ASN A   2      22.592 -13.395  -5.713  0.00  0.00    -0.286 OA
ENDBRANCH  11  12
BRANCH  11  14
ATOM     14  CB  ASN A   2      24.102 -13.584  -3.363  0.00  0.00    +0.112 C 
BRANCH  14  15
ATOM     15  CG  ASN A   2      23.331 -14.860  -3.075  0.00  0.00    +0.222 C 
ATOM     16  ND2 ASN A   2      22.391 -14.784  -2.138  0.00  0.00    -0.329 N 
ATOM     17 HD21 ASN A   2      22.206 -13.879  -1.659  0.00  0.00    +0.145 HD
ATOM     18 HD22 ASN A   2      21.841 -15.629  -1.884  0.00  0.00    +0.145 HD
ATOM     19  OD1 ASN A   2      23.588 -15.906  -3.670  0.00  0.00    -0.275 OA
ENDBRANCH  14  15
ENDBRANCH  11  14
ENDBRANCH   2  11
TORSDOF 8
REMARK  Name = ../refined-set-2016/4cg8/4cg8_pocket.pdb
REMARK  240 active torsions:
REMARK  status: ('A' for Active; 'I' for Inactive)
REMARK    1  A    between atoms: _1  and  _3
REMARK    2  A    between atoms: _3  and  _4
REMARK    3  A    between atoms: _3  and  _6
REMARK    4  A    between atoms: _6  and  _7
REMARK    5  A    between atoms: _7  and  _8
REMARK    6  A    between atoms: _8  and  _9
REMARK    7  A    between atoms: _18  and  _20
REMARK    8  A    between atoms: _20  and  _21
REMARK    9  A    between atoms: _20  and  _23
REMARK   10  A    between atoms: _23  and  _24
REMARK   11  A    between atoms: _26  and  _28
REMARK   12  A    between atoms: _28  and  _29
REMARK   13  A    between atoms: _28  and  _31
REMARK   14  A    between atoms: _31  and  _32
REMARK   15  A    between atoms: _37  and  _39
REMARK   16  A    between atoms: _39  and  _40
REMARK   17  A    between atoms: _39  and  _42
REMARK   18  A    between atoms: _42  and  _43
REMARK   19  A    between atoms: _46  and  _48
REMARK   20  A    between atoms: _48  and  _49
REMARK   21  A    between atoms: _48  and  _51
REMARK   22  A    between atoms: _51  and  _52
REMARK   23  A    between atoms: _62  and  _64
REMARK   24  A    between atoms: _64  and  _65
REMARK   25  A    between atoms: _64  and  _67
REMARK   26  A    between atoms: _67  and  _68
REMARK   27  A    between atoms: _71  and  _73
REMARK   28  A    between atoms: _73  and  _74
REMARK   29  A    between atoms: _76  and  _78
REMARK   30  A    between atoms: _78  and  _79
REMARK   31  A    between atoms: _78  and  _81
REMARK   32  A    between atoms: _81  and  _82
REMARK   33  A    between atoms: _85  and  _87
REMARK   34  A    between atoms: _87  and  _88
REMARK   35  A    between atoms: _87  and  _90
REMARK   36  A    between atoms: _90  and  _91
REMARK   37  A    between atoms: _91  and  _92
REMARK   38  A    between atoms: _94  and  _96
REMARK   39  A    between atoms: _96  and  _97
REMARK   40  A    between atoms: _96  and  _99
REMARK   41  A    between atoms: _99  and  _100
REMARK   42  A    between atoms: _100  and  _101
REMARK   43  A    between atoms: _104  and  _106
REMARK   44  A    between atoms: _106  and  _107
REMARK   45  A    between atoms: _106  and  _109
REMARK   46  A    between atoms: _109  and  _110
REMARK   47  A    between atoms: _110  and  _111
REMARK   48  A    between atoms: _111  and  _112
REMARK   49  A    between atoms: _112  and  _113
REMARK   50  A    between atoms: _117  and  _119
REMARK   51  A    between atoms: _119  and  _120
REMARK   52  A    between atoms: _119  and  _122
REMARK   53  A    between atoms: _122  and  _123
REMARK   54  A    between atoms: _128  and  _129
REMARK   55  A    between atoms: _131  and  _133
REMARK   56  A    between atoms: _133  and  _134
REMARK   57  A    between atoms: _133  and  _136
REMARK   58  A    between atoms: _136  and  _137
REMARK   59  A    between atoms: _140  and  _142
REMARK   60  A    between atoms: _142  and  _143
REMARK   61  A    between atoms: _142  and  _145
REMARK   62  A    between atoms: _145  and  _146
REMARK   63  A    between atoms: _151  and  _153
REMARK   64  A    between atoms: _153  and  _154
REMARK   65  A    between atoms: _153  and  _156
REMARK   66  A    between atoms: _156  and  _157
REMARK   67  A    between atoms: _162  and  _164
REMARK   68  A    between atoms: _164  and  _165
REMARK   69  A    between atoms: _164  and  _167
REMARK   70  A    between atoms: _167  and  _168
REMARK   71  A    between atoms: _171  and  _173
REMARK   72  A    between atoms: _173  and  _174
REMARK   73  A    between atoms: _173  and  _176
REMARK   74  A    between atoms: _178  and  _180
REMARK   75  A    between atoms: _180  and  _181
REMARK   76  A    between atoms: _180  and  _183
REMARK   77  A    between atoms: _183  and  _184
REMARK   78  A    between atoms: _184  and  _185
REMARK   79  A    between atoms: _190  and  _192
REMARK   80  A    between atoms: _192  and  _193
REMARK   81  A    between atoms: _192  and  _195
REMARK   82  A    between atoms: _195  and  _196
REMARK   83  A    between atoms: _196  and  _197
REMARK   84  A    between atoms: _200  and  _202
REMARK   85  A    between atoms: _202  and  _203
REMARK   86  A    between atoms: _205  and  _207
REMARK   87  A    between atoms: _207  and  _208
REMARK   88  A    between atoms: _207  and  _210
REMARK   89  A    between atoms: _210  and  _211
REMARK   90  A    between atoms: _216  and  _218
REMARK   91  A    between atoms: _218  and  _219
REMARK   92  A    between atoms: _218  and  _221
REMARK   93  A    between atoms: _221  and  _222
REMARK   94  A    between atoms: _225  and  _227
REMARK   95  A    between atoms: _227  and  _228
REMARK   96  A    between atoms: _227  and  _230
REMARK   97  A    between atoms: _230  and  _231
REMARK   98  A    between atoms: _231  and  _232
REMARK   99  A    between atoms: _235  and  _237
REMARK  100  A    between atoms: _237  and  _238
REMARK  101  A    between atoms: _237  and  _240
REMARK  102  A    between atoms: _240  and  _241
REMARK  103  A    between atoms: _246  and  _247
REMARK  104  A    between atoms: _249  and  _251
REMARK  105  A    between atoms: _251  and  _252
REMARK  106  A    between atoms: _251  and  _254
REMARK  107  A    between atoms: _254  and  _255
REMARK  108  A    between atoms: _257  and  _259
REMARK  109  A    between atoms: _259  and  _260
REMARK  110  A    between atoms: _259  and  _262
REMARK  111  A    between atoms: _262  and  _263
REMARK  112  A    between atoms: _268  and  _270
REMARK  113  A    between atoms: _270  and  _271
REMARK  114  A    between atoms: _270  and  _273
REMARK  115  A    between atoms: _273  and  _274
REMARK  116  A    between atoms: _280  and  _282
REMARK  117  A    between atoms: _282  and  _283
REMARK  118  A    between atoms: _282  and  _285
REMARK  119  A    between atoms: _285  and  _286
REMARK  120  A    between atoms: _291  and  _293
REMARK  121  A    between atoms: _293  and  _294
REMARK  122  A    between atoms: _293  and  _296
REMARK  123  A    between atoms: _296  and  _297
REMARK  124  A    between atoms: _297  and  _298
REMARK  125  A    between atoms: _301  and  _303
REMARK  126  A    between atoms: _303  and  _304
REMARK  127  A    between atoms: _303  and  _306
REMARK  128  A    between atoms: _306  and  _307
REMARK  129  A    between atoms: _312  and  _313
REMARK  130  A    between atoms: _315  and  _317
REMARK  131  A    between atoms: _317  and  _318
REMARK  132  A    between atoms: _317  and  _320
REMARK  133  A    between atoms: _320  and  _321
REMARK  134  A    between atoms: _324  and  _326
REMARK  135  A    between atoms: _326  and  _327
REMARK  136  A    between atoms: _326  and  _329
REMARK  137  A    between atoms: _329  and  _330
REMARK  138  A    between atoms: _335  and  _336
REMARK  139  A    between atoms: _338  and  _340
REMARK  140  A    between atoms: _340  and  _341
REMARK  141  A    between atoms: _340  and  _343
REMARK  142  A    between atoms: _343  and  _344
REMARK  143  A    between atoms: _346  and  _348
REMARK  144  A    between atoms: _348  and  _349
REMARK  145  A    between atoms: _348  and  _351
REMARK  146  A    between atoms: _351  and  _352
REMARK  147  A    between atoms: _357  and  _358
REMARK  148  A    between atoms: _360  and  _362
REMARK  149  A    between atoms: _362  and  _363
REMARK  150  A    between atoms: _362  and  _365
REMARK  151  A    between atoms: _365  and  _366
REMARK  152  A    between atoms: _372  and  _374
REMARK  153  A    between atoms: _374  and  _375
REMARK  154  A    between atoms: _374  and  _377
REMARK  155  A    between atoms: _377  and  _378
REMARK  156  A    between atoms: _384  and  _386
REMARK  157  A    between atoms: _386  and  _387
REMARK  158  A    between atoms: _390  and  _392
REMARK  159  A    between atoms: _392  and  _393
REMARK  160  A    between atoms: _392  and  _395
REMARK  161  A    between atoms: _395  and  _396
REMARK  162  A    between atoms: _398  and  _400
REMARK  163  A    between atoms: _400  and  _401
REMARK  164  A    between atoms: _400  and  _403
REMARK  165  A    between atoms: _403  and  _404
REMARK  166  A    between atoms: _410  and  _412
REMARK  167  A    between atoms: _412  and  _413
REMARK  168  A    between atoms: _412  and  _415
REMARK  169  A    between atoms: _415  and  _416
REMARK  170  A    between atoms: _419  and  _421
REMARK  171  A    between atoms: _421  and  _422
REMARK  172  A    between atoms: _421  and  _424
REMARK  173  A    between atoms: _424  and  _425
REMARK  174  A    between atoms: _435  and  _437
REMARK  175  A    between atoms: _437  and  _438
REMARK  176  A    between atoms: _440  and  _442
REMARK  177  A    between atoms: _442  and  _443
REMARK  178  A    between atoms: _442  and  _445
REMARK  179  A    between atoms: _445  and  _446
REMARK  180  A    between atoms: _449  and  _451
REMARK  181  A    between atoms: _451  and  _452
REMARK  182  A    between atoms: _451  and  _454
REMARK  183  A    between atoms: _454  and  _455
REMARK  184  A    between atoms: _465  and  _467
REMARK  185  A    between atoms: _467  and  _468
REMARK  186  A    between atoms: _467  and  _470
REMARK  187  A    between atoms: _470  and  _471
REMARK  188  A    between atoms: _473  and  _475
REMARK  189  A    between atoms: _475  and  _476
REMARK  190  A    between atoms: _475  and  _478
REMARK  191  A    between atoms: _478  and  _479
REMARK  192  A    between atoms: _482  and  _484
REMARK  193  A    between atoms: _484  and  _485
REMARK  194  A    between atoms: _484  and  _487
REMARK  195  A    between atoms: _490  and  _492
REMARK  196  A    between atoms: _492  and  _493
REMARK  197  A    between atoms: _492  and  _495
REMARK  198  A    between atoms: _495  and  _496
REMARK  199  A    between atoms: _496  and  _497
REMARK  200  A    between atoms: _502  and  _504
REMARK  201  A    between atoms: _504  and  _505
REMARK  202  A    between atoms: _504  and  _507
REMARK  203  A    between atoms: _507  and  _508
REMARK  204  A    between atoms: _510  and  _512
REMARK  205  A    between atoms: _512  and  _513
REMARK  206  A    between atoms: _512  and  _515
REMARK  207  A    between atoms: _515  and  _516
REMARK  208  A    between atoms: _518  and  _520
REMARK  209  A    between atoms: _520  and  _521
REMARK  210  A    between atoms: _520  and  _523
REMARK  211  A    between atoms: _523  and  _524
REMARK  212  A    between atoms: _527  and  _529
REMARK  213  A    between atoms: _529  and  _530
REMARK  214  A    between atoms: _529  and  _532
REMARK  215  A    between atoms: _532  and  _533
REMARK  216  A    between atoms: _533  and  _534
REMARK  217  A    between atoms: _537  and  _539
REMARK  218  A    between atoms: _539  and  _540
REMARK  219  A    between atoms: _539  and  _542
REMARK  220  A    between atoms: _542  and  _543
REMARK  221  A    between atoms: _549  and  _551
REMARK  222  A    between atoms: _551  and  _552
REMARK  223  A    between atoms: _554  and  _556
REMARK  224  A    between atoms: _556  and  _557
REMARK  225  A    between atoms: _556  and  _559
REMARK  226  A    between atoms: _559  and  _560
REMARK  227  A    between atoms: _565  and  _566
REMARK  228  A    between atoms: _568  and  _570
REMARK  229  A    between atoms: _570  and  _571
REMARK  230  A    between atoms: _570  and  _573
REMARK  231  A    between atoms: _573  and  _574
REMARK  232  A    between atoms: _579  and  _580
REMARK  233  A    between atoms: _582  and  _584
REMARK  234  A    between atoms: _584  and  _585
REMARK  235  A    between atoms: _588  and  _590
REMARK  236  A    between atoms: _590  and  _591
REMARK  237  A    between atoms: _590  and  _593
REMARK  238  A    between atoms: _593  and  _594
REMARK  239  A    between atoms: _594  and  _595
REMARK  240  A    between atoms: _595  and  _596
REMARK                            x       y       z     vdW  Elec       q    Type
REMARK                         _______ _______ _______ _____ _____    ______ ____
ROOT
ATOM      1  CA  THR A   1       5.134 -11.950   5.740  0.00  0.00    +0.160 C 
ENDROOT
BRANCH   1   2
ATOM      2  N   THR A   1       5.181 -11.921   4.272  0.00  0.00    -0.237 NA
ATOM      3  H   THR A   1       5.469 -11.049   3.784  0.00  0.00    +0.142 HD
ENDBRANCH   1   2
BRANCH   1   4
ATOM      4  CB  THR A   1       5.496 -10.589   6.367  0.00  0.00    +0.134 C 
ATOM      5  CG2 THR A   1       5.644 -10.694   7.879  0.00  0.00    +0.034 C 
BRANCH   4   6
ATOM      6  OG1 THR A   1       6.714 -10.105   5.799  0.00  0.00    -0.383 OA
ATOM      7  HG1 THR A   1       7.441 -10.753   5.978  0.00  0.00    +0.210 HD
ENDBRANCH   4   6
ENDBRANCH   1   4
BRANCH   1   8
ATOM      8  C   THR A   1       3.767 -12.384   6.269  0.00  0.00    +0.227 C 
ATOM      9  O   THR A   1       3.696 -13.184   7.207  0.00  0.00    -0.287 OA
ENDBRANCH   1   8
TORSDOF 4
REMARK  Name = ../refined-set-2016/4cg8/4cg8_pocket.pdb
REMARK  240 active torsions:
REMARK  status: ('A' for Active; 'I' for Inactive)
REMARK    1  A    between atoms: _1  and  _3
REMARK    2  A    between atoms: _3  and  _4
REMARK    3  A    between atoms: _3  and  _6
REMARK    4  A    between atoms: _6  and  _7
REMARK    5  A    between atoms: _7  and  _8
REMARK    6  A    between atoms: _8  and  _9
REMARK    7  A    between atoms: _18  and  _20
REMARK    8  A    between atoms: _20  and  _21
REMARK    9  A    between atoms: _20  and  _23
REMARK   10  A    between atoms: _23  and  _24
REMARK   11  A    between atoms: _26  and  _28
REMARK   12  A    between atoms: _28  and  _29
REMARK   13  A    between atoms: _28  and  _31
REMARK   14  A    between atoms: _31  and  _32
REMARK   15  A    between atoms: _37  and  _39
REMARK   16  A    between atoms: _39  and  _40
REMARK   17  A    between atoms: _39  and  _42
REMARK   18  A    between atoms: _42  and  _43
REMARK   19  A    between atoms: _46  and  _48
REMARK   20  A    between atoms: _48  and  _49
REMARK   21  A    between atoms: _48  and  _51
REMARK   22  A    between atoms: _51  and  _52
REMARK   23  A    between atoms: _62  and  _64
REMARK   24  A    between atoms: _64  and  _65
REMARK   25  A    between atoms: _64  and  _67
REMARK   26  A    between atoms: _67  and  _68
REMARK   27  A    between atoms: _71  and  _73
REMARK   28  A    between atoms: _73  and  _74
REMARK   29  A    between atoms: _76  and  _78
REMARK   30  A    between atoms: _78  and  _79
REMARK   31  A    between atoms: _78  and  _81
REMARK   32  A    between atoms: _81  and  _82
REMARK   33  A    between atoms: _85  and  _87
REMARK   34  A    between atoms: _87  and  _88
REMARK   35  A    between atoms: _87  and  _90
REMARK   36  A    between atoms: _90  and  _91
REMARK   37  A    between atoms: _91  and  _92
REMARK   38  A    between atoms: _94  and  _96
REMARK   39  A    between atoms: _96  and  _97
REMARK   40  A    between atoms: _96  and  _99
REMARK   41  A    between atoms: _99  and  _100
REMARK   42  A    between atoms: _100  and  _101
REMARK   43  A    between atoms: _104  and  _106
REMARK   44  A    between atoms: _106  and  _107
REMARK   45  A    between atoms: _106  and  _109
REMARK   46  A    between atoms: _109  and  _110
REMARK   47  A    between atoms: _110  and  _111
REMARK   48  A    between atoms: _111  and  _112
REMARK   49  A    between atoms: _112  and  _113
REMARK   50  A    between atoms: _117  and  _119
REMARK   51  A    between atoms: _119  and  _120
REMARK   52  A    between atoms: _119  and  _122
REMARK   53  A    between atoms: _122  and  _123
REMARK   54  A    between atoms: _128  and  _129
REMARK   55  A    between atoms: _131  and  _133
REMARK   56  A    between atoms: _133  and  _134
REMARK   57  A    between atoms: _133  and  _136
REMARK   58  A    between atoms: _136  and  _137
REMARK   59  A    between atoms: _140  and  _142
REMARK   60  A    between atoms: _142  and  _143
REMARK   61  A    between atoms: _142  and  _145
REMARK   62  A    between atoms: _145  and  _146
REMARK   63  A    between atoms: _151  and  _153
REMARK   64  A    between atoms: _153  and  _154
REMARK   65  A    between atoms: _153  and  _156
REMARK   66  A    between atoms: _156  and  _157
REMARK   67  A    between atoms: _162  and  _164
REMARK   68  A    between atoms: _164  and  _165
REMARK   69  A    between atoms: _164  and  _167
REMARK   70  A    between atoms: _167  and  _168
REMARK   71  A    between atoms: _171  and  _173
REMARK   72  A    between atoms: _173  and  _174
REMARK   73  A    between atoms: _173  and  _176
REMARK   74  A    between atoms: _178  and  _180
REMARK   75  A    between atoms: _180  and  _181
REMARK   76  A    between atoms: _180  and  _183
REMARK   77  A    between atoms: _183  and  _184
REMARK   78  A    between atoms: _184  and  _185
REMARK   79  A    between atoms: _190  and  _192
REMARK   80  A    between atoms: _192  and  _193
REMARK   81  A    between atoms: _192  and  _195
REMARK   82  A    between atoms: _195  and  _196
REMARK   83  A    between atoms: _196  and  _197
REMARK   84  A    between atoms: _200  and  _202
REMARK   85  A    between atoms: _202  and  _203
REMARK   86  A    between atoms: _205  and  _207
REMARK   87  A    between atoms: _207  and  _208
REMARK   88  A    between atoms: _207  and  _210
REMARK   89  A    between atoms: _210  and  _211
REMARK   90  A    between atoms: _216  and  _218
REMARK   91  A    between atoms: _218  and  _219
REMARK   92  A    between atoms: _218  and  _221
REMARK   93  A    between atoms: _221  and  _222
REMARK   94  A    between atoms: _225  and  _227
REMARK   95  A    between atoms: _227  and  _228
REMARK   96  A    between atoms: _227  and  _230
REMARK   97  A    between atoms: _230  and  _231
REMARK   98  A    between atoms: _231  and  _232
REMARK   99  A    between atoms: _235  and  _237
REMARK  100  A    between atoms: _237  and  _238
REMARK  101  A    between atoms: _237  and  _240
REMARK  102  A    between atoms: _240  and  _241
REMARK  103  A    between atoms: _246  and  _247
REMARK  104  A    between atoms: _249  and  _251
REMARK  105  A    between atoms: _251  and  _252
REMARK  106  A    between atoms: _251  and  _254
REMARK  107  A    between atoms: _254  and  _255
REMARK  108  A    between atoms: _257  and  _259
REMARK  109  A    between atoms: _259  and  _260
REMARK  110  A    between atoms: _259  and  _262
REMARK  111  A    between atoms: _262  and  _263
REMARK  112  A    between atoms: _268  and  _270
REMARK  113  A    between atoms: _270  and  _271
REMARK  114  A    between atoms: _270  and  _273
REMARK  115  A    between atoms: _273  and  _274
REMARK  116  A    between atoms: _280  and  _282
REMARK  117  A    between atoms: _282  and  _283
REMARK  118  A    between atoms: _282  and  _285
REMARK  119  A    between atoms: _285  and  _286
REMARK  120  A    between atoms: _291  and  _293
REMARK  121  A    between atoms: _293  and  _294
REMARK  122  A    between atoms: _293  and  _296
REMARK  123  A    between atoms: _296  and  _297
REMARK  124  A    between atoms: _297  and  _298
REMARK  125  A    between atoms: _301  and  _303
REMARK  126  A    between atoms: _303  and  _304
REMARK  127  A    between atoms: _303  and  _306
REMARK  128  A    between atoms: _306  and  _307
REMARK  129  A    between atoms: _312  and  _313
REMARK  130  A    between atoms: _315  and  _317
REMARK  131  A    between atoms: _317  and  _318
REMARK  132  A    between atoms: _317  and  _320
REMARK  133  A    between atoms: _320  and  _321
REMARK  134  A    between atoms: _324  and  _326
REMARK  135  A    between atoms: _326  and  _327
REMARK  136  A    between atoms: _326  and  _329
REMARK  137  A    between atoms: _329  and  _330
REMARK  138  A    between atoms: _335  and  _336
REMARK  139  A    between atoms: _338  and  _340
REMARK  140  A    between atoms: _340  and  _341
REMARK  141  A    between atoms: _340  and  _343
REMARK  142  A    between atoms: _343  and  _344
REMARK  143  A    between atoms: _346  and  _348
REMARK  144  A    between atoms: _348  and  _349
REMARK  145  A    between atoms: _348  and  _351
REMARK  146  A    between atoms: _351  and  _352
REMARK  147  A    between atoms: _357  and  _358
REMARK  148  A    between atoms: _360  and  _362
REMARK  149  A    between atoms: _362  and  _363
REMARK  150  A    between atoms: _362  and  _365
REMARK  151  A    between atoms: _365  and  _366
REMARK  152  A    between atoms: _372  and  _374
REMARK  153  A    between atoms: _374  and  _375
REMARK  154  A    between atoms: _374  and  _377
REMARK  155  A    between atoms: _377  and  _378
REMARK  156  A    between atoms: _384  and  _386
REMARK  157  A    between atoms: _386  and  _387
REMARK  158  A    between atoms: _390  and  _392
REMARK  159  A    between atoms: _392  and  _393
REMARK  160  A    between atoms: _392  and  _395
REMARK  161  A    between atoms: _395  and  _396
REMARK  162  A    between atoms: _398  and  _400
REMARK  163  A    between atoms: _400  and  _401
REMARK  164  A    between atoms: _400  and  _403
REMARK  165  A    between atoms: _403  and  _404
REMARK  166  A    between atoms: _410  and  _412
REMARK  167  A    between atoms: _412  and  _413
REMARK  168  A    between atoms: _412  and  _415
REMARK  169  A    between atoms: _415  and  _416
REMARK  170  A    between atoms: _419  and  _421
REMARK  171  A    between atoms: _421  and  _422
REMARK  172  A    between atoms: _421  and  _424
REMARK  173  A    between atoms: _424  and  _425
REMARK  174  A    between atoms: _435  and  _437
REMARK  175  A    between atoms: _437  and  _438
REMARK  176  A    between atoms: _440  and  _442
REMARK  177  A    between atoms: _442  and  _443
REMARK  178  A    between atoms: _442  and  _445
REMARK  179  A    between atoms: _445  and  _446
REMARK  180  A    between atoms: _449  and  _451
REMARK  181  A    between atoms: _451  and  _452
REMARK  182  A    between atoms: _451  and  _454
REMARK  183  A    between atoms: _454  and  _455
REMARK  184  A    between atoms: _465  and  _467
REMARK  185  A    between atoms: _467  and  _468
REMARK  186  A    between atoms: _467  and  _470
REMARK  187  A    between atoms: _470  and  _471
REMARK  188  A    between atoms: _473  and  _475
REMARK  189  A    between atoms: _475  and  _476
REMARK  190  A    between atoms: _475  and  _478
REMARK  191  A    between atoms: _478  and  _479
REMARK  192  A    between atoms: _482  and  _484
REMARK  193  A    between atoms: _484  and  _485
REMARK  194  A    between atoms: _484  and  _487
REMARK  195  A    between atoms: _490  and  _492
REMARK  196  A    between atoms: _492  and  _493
REMARK  197  A    between atoms: _492  and  _495
REMARK  198  A    between atoms: _495  and  _496
REMARK  199  A    between atoms: _496  and  _497
REMARK  200  A    between atoms: _502  and  _504
REMARK  201  A    between atoms: _504  and  _505
REMARK  202  A    between atoms: _504  and  _507
REMARK  203  A    between atoms: _507  and  _508
REMARK  204  A    between atoms: _510  and  _512
REMARK  205  A    between atoms: _512  and  _513
REMARK  206  A    between atoms: _512  and  _515
REMARK  207  A    between atoms: _515  and  _516
REMARK  208  A    between atoms: _518  and  _520
REMARK  209  A    between atoms: _520  and  _521
REMARK  210  A    between atoms: _520  and  _523
REMARK  211  A    between atoms: _523  and  _524
REMARK  212  A    between atoms: _527  and  _529
REMARK  213  A    between atoms: _529  and  _530
REMARK  214  A    between atoms: _529  and  _532
REMARK  215  A    between atoms: _532  and  _533
REMARK  216  A    between atoms: _533  and  _534
REMARK  217  A    between atoms: _537  and  _539
REMARK  218  A    between atoms: _539  and  _540
REMARK  219  A    between atoms: _539  and  _542
REMARK  220  A    between atoms: _542  and  _543
REMARK  221  A    between atoms: _549  and  _551
REMARK  222  A    between atoms: _551  and  _552
REMARK  223  A    between atoms: _554  and  _556
REMARK  224  A    between atoms: _556  and  _557
REMARK  225  A    between atoms: _556  and  _559
REMARK  226  A    between atoms: _559  and  _560
REMARK  227  A    between atoms: _565  and  _566
REMARK  228  A    between atoms: _568  and  _570
REMARK  229  A    between atoms: _570  and  _571
REMARK  230  A    between atoms: _570  and  _573
REMARK  231  A    between atoms: _573  and  _574
REMARK  232  A    between atoms: _579  and  _580
REMARK  233  A    between atoms: _582  and  _584
REMARK  234  A    between atoms: _584  and  _585
REMARK  235  A    between atoms: _588  and  _590
REMARK  236  A    between atoms: _590  and  _591
REMARK  237  A    between atoms: _590  and  _593
REMARK  238  A    between atoms: _593  and  _594
REMARK  239  A    between atoms: _594  and  _595
REMARK  240  A    between atoms: _595  and  _596
REMARK                            x       y       z     vdW  Elec       q    Type
REMARK                         _______ _______ _______ _____ _____    ______ ____
ROOT
ATOM      1  CA  TRP A   1      27.626 -19.526  17.345  0.00  0.00    +0.149 C 
ENDROOT
BRANCH   1   2
ATOM      2  C   TRP A   1      26.855 -18.331  17.872  0.00  0.00    +0.239 C 
ATOM      3  N   LEU A   2      25.841 -18.594  18.687  0.00  0.00    -0.298 N 
ATOM      4  H   LEU A   2      25.711 -19.559  19.052  0.00  0.00    +0.150 HD
ATOM      5  O   TRP A   1      27.167 -17.170  17.532  0.00  0.00    -0.274 OA
BRANCH   3   6
ATOM      6  CA  LEU A   2      24.905 -17.539  19.076  0.00  0.00    +0.137 C 
BRANCH   6   7
ATOM      7  C   LEU A   2      25.594 -16.422  19.869  0.00  0.00    +0.227 C 
ATOM      8  O   LEU A   2      25.571 -15.252  19.451  0.00  0.00    -0.286 OA
ENDBRANCH   6   7
BRANCH   6   9
ATOM      9  CB  LEU A   2      23.719 -18.100  19.853  0.00  0.00    +0.028 C 
BRANCH   9  10
ATOM     10  CG  LEU A   2      22.657 -17.086  20.322  0.00  0.00    +0.002 C 
ATOM     11  CD2 LEU A   2      21.519 -17.783  21.074  0.00  0.00    +0.000 C 
ATOM     12  CD1 LEU A   2      22.120 -16.181  19.204  0.00  0.00    +0.000 C 
ENDBRANCH   9  10
ENDBRANCH   6   9
ENDBRANCH   3   6
ENDBRANCH   1   2
BRANCH   1  13
ATOM     13  N   TRP A   1      28.041 -20.512  18.358  0.00  0.00    -0.238 NA
ATOM     14  H   TRP A   1      27.753 -21.504  18.239  0.00  0.00    +0.142 HD
ENDBRANCH   1  13
BRANCH   1  15
ATOM     15  CB  TRP A   1      26.804 -20.204  16.254  0.00  0.00    +0.054 C 
BRANCH  15  16
ATOM     16  CG  TRP A   1      26.396 -19.260  15.151  0.00  0.00    -0.002 A 
ATOM     17  CD2 TRP A   1      25.109 -18.540  15.001  0.00  0.00    +0.013 A 
ATOM     18  CE3 TRP A   1      23.914 -18.483  15.736  0.00  0.00    +0.001 A 
ATOM     19  CZ3 TRP A   1      22.879 -17.650  15.267  0.00  0.00    +0.000 A 
ATOM     20  CH2 TRP A   1      23.019 -16.903  14.082  0.00  0.00    +0.001 A 
ATOM     21  CZ2 TRP A   1      24.190 -16.937  13.318  0.00  0.00    +0.017 A 
ATOM     22  CE2 TRP A   1      25.223 -17.755  13.772  0.00  0.00    +0.056 A 
ATOM     23  NE1 TRP A   1      26.458 -17.991  13.261  0.00  0.00    -0.352 N 
ATOM     24  HE1 TRP A   1      26.826 -17.563  12.388  0.00  0.00    +0.166 HD
ATOM     25  CD1 TRP A   1      27.156 -18.870  14.050  0.00  0.00    +0.068 A 
ENDBRANCH  15  16
ENDBRANCH   1  15
TORSDOF 8
REMARK  Name = ../refined-set-2016/4cg8/4cg8_pocket.pdb
REMARK  240 active torsions:
REMARK  status: ('A' for Active; 'I' for Inactive)
REMARK    1  A    between atoms: _1  and  _3
REMARK    2  A    between atoms: _3  and  _4
REMARK    3  A    between atoms: _3  and  _6
REMARK    4  A    between atoms: _6  and  _7
REMARK    5  A    between atoms: _7  and  _8
REMARK    6  A    between atoms: _8  and  _9
REMARK    7  A    between atoms: _18  and  _20
REMARK    8  A    between atoms: _20  and  _21
REMARK    9  A    between atoms: _20  and  _23
REMARK   10  A    between atoms: _23  and  _24
REMARK   11  A    between atoms: _26  and  _28
REMARK   12  A    between atoms: _28  and  _29
REMARK   13  A    between atoms: _28  and  _31
REMARK   14  A    between atoms: _31  and  _32
REMARK   15  A    between atoms: _37  and  _39
REMARK   16  A    between atoms: _39  and  _40
REMARK   17  A    between atoms: _39  and  _42
REMARK   18  A    between atoms: _42  and  _43
REMARK   19  A    between atoms: _46  and  _48
REMARK   20  A    between atoms: _48  and  _49
REMARK   21  A    between atoms: _48  and  _51
REMARK   22  A    between atoms: _51  and  _52
REMARK   23  A    between atoms: _62  and  _64
REMARK   24  A    between atoms: _64  and  _65
REMARK   25  A    between atoms: _64  and  _67
REMARK   26  A    between atoms: _67  and  _68
REMARK   27  A    between atoms: _71  and  _73
REMARK   28  A    between atoms: _73  and  _74
REMARK   29  A    between atoms: _76  and  _78
REMARK   30  A    between atoms: _78  and  _79
REMARK   31  A    between atoms: _78  and  _81
REMARK   32  A    between atoms: _81  and  _82
REMARK   33  A    between atoms: _85  and  _87
REMARK   34  A    between atoms: _87  and  _88
REMARK   35  A    between atoms: _87  and  _90
REMARK   36  A    between atoms: _90  and  _91
REMARK   37  A    between atoms: _91  and  _92
REMARK   38  A    between atoms: _94  and  _96
REMARK   39  A    between atoms: _96  and  _97
REMARK   40  A    between atoms: _96  and  _99
REMARK   41  A    between atoms: _99  and  _100
REMARK   42  A    between atoms: _100  and  _101
REMARK   43  A    between atoms: _104  and  _106
REMARK   44  A    between atoms: _106  and  _107
REMARK   45  A    between atoms: _106  and  _109
REMARK   46  A    between atoms: _109  and  _110
REMARK   47  A    between atoms: _110  and  _111
REMARK   48  A    between atoms: _111  and  _112
REMARK   49  A    between atoms: _112  and  _113
REMARK   50  A    between atoms: _117  and  _119
REMARK   51  A    between atoms: _119  and  _120
REMARK   52  A    between atoms: _119  and  _122
REMARK   53  A    between atoms: _122  and  _123
REMARK   54  A    between atoms: _128  and  _129
REMARK   55  A    between atoms: _131  and  _133
REMARK   56  A    between atoms: _133  and  _134
REMARK   57  A    between atoms: _133  and  _136
REMARK   58  A    between atoms: _136  and  _137
REMARK   59  A    between atoms: _140  and  _142
REMARK   60  A    between atoms: _142  and  _143
REMARK   61  A    between atoms: _142  and  _145
REMARK   62  A    between atoms: _145  and  _146
REMARK   63  A    between atoms: _151  and  _153
REMARK   64  A    between atoms: _153  and  _154
REMARK   65  A    between atoms: _153  and  _156
REMARK   66  A    between atoms: _156  and  _157
REMARK   67  A    between atoms: _162  and  _164
REMARK   68  A    between atoms: _164  and  _165
REMARK   69  A    between atoms: _164  and  _167
REMARK   70  A    between atoms: _167  and  _168
REMARK   71  A    between atoms: _171  and  _173
REMARK   72  A    between atoms: _173  and  _174
REMARK   73  A    between atoms: _173  and  _176
REMARK   74  A    between atoms: _178  and  _180
REMARK   75  A    between atoms: _180  and  _181
REMARK   76  A    between atoms: _180  and  _183
REMARK   77  A    between atoms: _183  and  _184
REMARK   78  A    between atoms: _184  and  _185
REMARK   79  A    between atoms: _190  and  _192
REMARK   80  A    between atoms: _192  and  _193
REMARK   81  A    between atoms: _192  and  _195
REMARK   82  A    between atoms: _195  and  _196
REMARK   83  A    between atoms: _196  and  _197
REMARK   84  A    between atoms: _200  and  _202
REMARK   85  A    between atoms: _202  and  _203
REMARK   86  A    between atoms: _205  and  _207
REMARK   87  A    between atoms: _207  and  _208
REMARK   88  A    between atoms: _207  and  _210
REMARK   89  A    between atoms: _210  and  _211
REMARK   90  A    between atoms: _216  and  _218
REMARK   91  A    between atoms: _218  and  _219
REMARK   92  A    between atoms: _218  and  _221
REMARK   93  A    between atoms: _221  and  _222
REMARK   94  A    between atoms: _225  and  _227
REMARK   95  A    between atoms: _227  and  _228
REMARK   96  A    between atoms: _227  and  _230
REMARK   97  A    between atoms: _230  and  _231
REMARK   98  A    between atoms: _231  and  _232
REMARK   99  A    between atoms: _235  and  _237
REMARK  100  A    between atoms: _237  and  _238
REMARK  101  A    between atoms: _237  and  _240
REMARK  102  A    between atoms: _240  and  _241
REMARK  103  A    between atoms: _246  and  _247
REMARK  104  A    between atoms: _249  and  _251
REMARK  105  A    between atoms: _251  and  _252
REMARK  106  A    between atoms: _251  and  _254
REMARK  107  A    between atoms: _254  and  _255
REMARK  108  A    between atoms: _257  and  _259
REMARK  109  A    between atoms: _259  and  _260
REMARK  110  A    between atoms: _259  and  _262
REMARK  111  A    between atoms: _262  and  _263
REMARK  112  A    between atoms: _268  and  _270
REMARK  113  A    between atoms: _270  and  _271
REMARK  114  A    between atoms: _270  and  _273
REMARK  115  A    between atoms: _273  and  _274
REMARK  116  A    between atoms: _280  and  _282
REMARK  117  A    between atoms: _282  and  _283
REMARK  118  A    between atoms: _282  and  _285
REMARK  119  A    between atoms: _285  and  _286
REMARK  120  A    between atoms: _291  and  _293
REMARK  121  A    between atoms: _293  and  _294
REMARK  122  A    between atoms: _293  and  _296
REMARK  123  A    between atoms: _296  and  _297
REMARK  124  A    between atoms: _297  and  _298
REMARK  125  A    between atoms: _301  and  _303
REMARK  126  A    between atoms: _303  and  _304
REMARK  127  A    between atoms: _303  and  _306
REMARK  128  A    between atoms: _306  and  _307
REMARK  129  A    between atoms: _312  and  _313
REMARK  130  A    between atoms: _315  and  _317
REMARK  131  A    between atoms: _317  and  _318
REMARK  132  A    between atoms: _317  and  _320
REMARK  133  A    between atoms: _320  and  _321
REMARK  134  A    between atoms: _324  and  _326
REMARK  135  A    between atoms: _326  and  _327
REMARK  136  A    between atoms: _326  and  _329
REMARK  137  A    between atoms: _329  and  _330
REMARK  138  A    between atoms: _335  and  _336
REMARK  139  A    between atoms: _338  and  _340
REMARK  140  A    between atoms: _340  and  _341
REMARK  141  A    between atoms: _340  and  _343
REMARK  142  A    between atoms: _343  and  _344
REMARK  143  A    between atoms: _346  and  _348
REMARK  144  A    between atoms: _348  and  _349
REMARK  145  A    between atoms: _348  and  _351
REMARK  146  A    between atoms: _351  and  _352
REMARK  147  A    between atoms: _357  and  _358
REMARK  148  A    between atoms: _360  and  _362
REMARK  149  A    between atoms: _362  and  _363
REMARK  150  A    between atoms: _362  and  _365
REMARK  151  A    between atoms: _365  and  _366
REMARK  152  A    between atoms: _372  and  _374
REMARK  153  A    between atoms: _374  and  _375
REMARK  154  A    between atoms: _374  and  _377
REMARK  155  A    between atoms: _377  and  _378
REMARK  156  A    between atoms: _384  and  _386
REMARK  157  A    between atoms: _386  and  _387
REMARK  158  A    between atoms: _390  and  _392
REMARK  159  A    between atoms: _392  and  _393
REMARK  160  A    between atoms: _392  and  _395
REMARK  161  A    between atoms: _395  and  _396
REMARK  162  A    between atoms: _398  and  _400
REMARK  163  A    between atoms: _400  and  _401
REMARK  164  A    between atoms: _400  and  _403
REMARK  165  A    between atoms: _403  and  _404
REMARK  166  A    between atoms: _410  and  _412
REMARK  167  A    between atoms: _412  and  _413
REMARK  168  A    between atoms: _412  and  _415
REMARK  169  A    between atoms: _415  and  _416
REMARK  170  A    between atoms: _419  and  _421
REMARK  171  A    between atoms: _421  and  _422
REMARK  172  A    between atoms: _421  and  _424
REMARK  173  A    between atoms: _424  and  _425
REMARK  174  A    between atoms: _435  and  _437
REMARK  175  A    between atoms: _437  and  _438
REMARK  176  A    between atoms: _440  and  _442
REMARK  177  A    between atoms: _442  and  _443
REMARK  178  A    between atoms: _442  and  _445
REMARK  179  A    between atoms: _445  and  _446
REMARK  180  A    between atoms: _449  and  _451
REMARK  181  A    between atoms: _451  and  _452
REMARK  182  A    between atoms: _451  and  _454
REMARK  183  A    between atoms: _454  and  _455
REMARK  184  A    between atoms: _465  and  _467
REMARK  185  A    between atoms: _467  and  _468
REMARK  186  A    between atoms: _467  and  _470
REMARK  187  A    between atoms: _470  and  _471
REMARK  188  A    between atoms: _473  and  _475
REMARK  189  A    between atoms: _475  and  _476
REMARK  190  A    between atoms: _475  and  _478
REMARK  191  A    between atoms: _478  and  _479
REMARK  192  A    between atoms: _482  and  _484
REMARK  193  A    between atoms: _484  and  _485
REMARK  194  A    between atoms: _484  and  _487
REMARK  195  A    between atoms: _490  and  _492
REMARK  196  A    between atoms: _492  and  _493
REMARK  197  A    between atoms: _492  and  _495
REMARK  198  A    between atoms: _495  and  _496
REMARK  199  A    between atoms: _496  and  _497
REMARK  200  A    between atoms: _502  and  _504
REMARK  201  A    between atoms: _504  and  _505
REMARK  202  A    between atoms: _504  and  _507
REMARK  203  A    between atoms: _507  and  _508
REMARK  204  A    between atoms: _510  and  _512
REMARK  205  A    between atoms: _512  and  _513
REMARK  206  A    between atoms: _512  and  _515
REMARK  207  A    between atoms: _515  and  _516
REMARK  208  A    between atoms: _518  and  _520
REMARK  209  A    between atoms: _520  and  _521
REMARK  210  A    between atoms: _520  and  _523
REMARK  211  A    between atoms: _523  and  _524
REMARK  212  A    between atoms: _527  and  _529
REMARK  213  A    between atoms: _529  and  _530
REMARK  214  A    between atoms: _529  and  _532
REMARK  215  A    between atoms: _532  and  _533
REMARK  216  A    between atoms: _533  and  _534
REMARK  217  A    between atoms: _537  and  _539
REMARK  218  A    between atoms: _539  and  _540
REMARK  219  A    between atoms: _539  and  _542
REMARK  220  A    between atoms: _542  and  _543
REMARK  221  A    between atoms: _549  and  _551
REMARK  222  A    between atoms: _551  and  _552
REMARK  223  A    between atoms: _554  and  _556
REMARK  224  A    between atoms: _556  and  _557
REMARK  225  A    between atoms: _556  and  _559
REMARK  226  A    between atoms: _559  and  _560
REMARK  227  A    between atoms: _565  and  _566
REMARK  228  A    between atoms: _568  and  _570
REMARK  229  A    between atoms: _570  and  _571
REMARK  230  A    between atoms: _570  and  _573
REMARK  231  A    between atoms: _573  and  _574
REMARK  232  A    between atoms: _579  and  _580
REMARK  233  A    between atoms: _582  and  _584
REMARK  234  A    between atoms: _584  and  _585
REMARK  235  A    between atoms: _588  and  _590
REMARK  236  A    between atoms: _590  and  _591
REMARK  237  A    between atoms: _590  and  _593
REMARK  238  A    between atoms: _593  and  _594
REMARK  239  A    between atoms: _594  and  _595
REMARK  240  A    between atoms: _595  and  _596
REMARK                            x       y       z     vdW  Elec       q    Type
REMARK                         _______ _______ _______ _____ _____    ______ ____
ROOT
ATOM      1  C   GLU A   4      30.914 -10.046  20.328  0.00  0.00    +0.241 C 
ATOM      2  O   GLU A   4      31.350  -8.907  20.549  0.00  0.00    -0.273 OA
ATOM      3  N   LYS A   5      31.182 -10.749  19.225  0.00  0.00    -0.297 N 
ATOM      4  H   LYS A   5      30.826 -11.724  19.164  0.00  0.00    +0.150 HD
ENDROOT
BRANCH   3   5
ATOM      5  CA  LYS A   5      31.950 -10.221  18.097  0.00  0.00    +0.149 C 
BRANCH   5   6
ATOM      6  C   LYS A   5      31.291  -8.975  17.522  0.00  0.00    +0.241 C 
ATOM      7  O   LYS A   5      31.955  -7.945  17.301  0.00  0.00    -0.273 OA
ATOM      8  N   TYR A   6      29.980  -9.049  17.300  0.00  0.00    -0.297 N 
ATOM      9  H   TYR A   6      29.471  -9.932  17.508  0.00  0.00    +0.150 HD
BRANCH   8  10
ATOM     10  CA  TYR A   6      29.250  -7.902  16.768  0.00  0.00    +0.153 C 
BRANCH  10  11
ATOM     11  C   TYR A   6      29.168  -6.741  17.752  0.00  0.00    +0.241 C 
ATOM     12  N   LEU A   7      29.001  -7.056  19.030  0.00  0.00    -0.298 N 
ATOM     13  H   LEU A   7      28.899  -8.051  19.316  0.00  0.00    +0.150 HD
ATOM     14  O   TYR A   6      29.289  -5.558  17.355  0.00  0.00    -0.273 OA
BRANCH  12  15
ATOM     15  CA  LEU A   7      28.962  -5.982  20.041  0.00  0.00    +0.137 C 
BRANCH  15  16
ATOM     16  C   LEU A   7      30.285  -5.200  20.092  0.00  0.00    +0.227 C 
ATOM     17  O   LEU A   7      30.282  -3.965  20.162  0.00  0.00    -0.286 OA
ENDBRANCH  15  16
BRANCH  15  18
ATOM     18  CB  LEU A   7      28.584  -6.517  21.427  0.00  0.00    +0.028 C 
BRANCH  18  19
ATOM     19  CG  LEU A   7      28.671  -5.513  22.589  0.00  0.00    +0.002 C 
ATOM     20  CD2 LEU A   7      28.353  -6.189  23.920  0.00  0.00    +0.000 C 
ATOM     21  CD1 LEU A   7      27.763  -4.304  22.342  0.00  0.00    +0.000 C 
ENDBRANCH  18  19
ENDBRANCH  15  18
ENDBRANCH  12  15
ENDBRANCH  10  11
BRANCH  10  22
ATOM     22  CB  TYR A   6      27.866  -8.315  16.262  0.00  0.00    +0.055 C 
BRANCH  22  23
ATOM     23  CG  TYR A   6      27.897  -8.715  14.797  0.00  0.00    -0.020 A 
ATOM     24  CD2 TYR A   6      28.413  -9.942  14.403  0.00  0.00    -0.001 A 
ATOM     25  CE2 TYR A   6      28.447 -10.316  13.069  0.00  0.00    +0.036 A 
ATOM     26  CZ  TYR A   6      27.966  -9.454  12.105  0.00  0.00    +0.134 A 
ATOM     27  CE1 TYR A   6      27.459  -8.216  12.464  0.00  0.00    +0.036 A 
ATOM     28  CD1 TYR A   6      27.421  -7.854  13.807  0.00  0.00    -0.001 A 
BRANCH  26  29
ATOM     29  OH  TYR A   6      28.005  -9.819  10.769  0.00  0.00    -0.506 OA
ATOM     30  HH  TYR A   6      28.564  -9.173  10.268  0.00  0.00    +0.292 HD
ENDBRANCH  26  29
ENDBRANCH  22  23
ENDBRANCH  10  22
ENDBRANCH   8  10
ENDBRANCH   5   6
BRANCH   5  31
ATOM     31  CB  LYS A   5      32.075 -11.296  17.005  0.00  0.00    +0.029 C 
BRANCH  31  32
ATOM     32  CG  LYS A   5      32.848 -10.852  15.778  0.00  0.00    +0.000 C 
BRANCH  32  33
ATOM     33  CD  LYS A   5      33.104 -12.009  14.823  0.00  0.00    -0.024 C 
BRANCH  33  34
ATOM     34  CE  LYS A   5      33.259 -11.492  13.403  0.00  0.00    -0.086 C 
BRANCH  34  35
ATOM     35  NZ  LYS A   5      31.968 -10.904  12.956  0.00  0.00    +0.380 N 
ATOM     36  HZ1 LYS A   5      31.708 -10.120  13.588  0.00  0.00    -0.089 HD
ATOM     37  HZ2 LYS A   5      31.228 -11.634  12.985  0.00  0.00    -0.089 HD
ATOM     38  HZ3 LYS A   5      32.069 -10.548  11.984  0.00  0.00    -0.089 HD
ENDBRANCH  34  35
ENDBRANCH  33  34
ENDBRANCH  32  33
ENDBRANCH  31  32
ENDBRANCH   5  31
ENDBRANCH   3   5
BRANCH   1  39
ATOM     39  CA  GLU A   4      30.041 -10.736  21.355  0.00  0.00    +0.149 C 
BRANCH  39  41
ATOM     40  C   MET A   3      27.901 -10.686  20.134  0.00  0.00    +0.241 C 
ATOM     41  N   GLU A   4      28.852 -11.387  20.757  0.00  0.00    -0.297 N 
ATOM     42  H   GLU A   4      28.755 -12.420  20.824  0.00  0.00    +0.150 HD
ATOM     43  O   MET A   3      27.921  -9.443  20.053  0.00  0.00    -0.273 OA
BRANCH  40  44
ATOM     44  CA  MET A   3      26.746 -11.473  19.502  0.00  0.00    +0.149 C 
BRANCH  44  46
ATOM     45  C   THR A   2      28.034 -12.585  17.767  0.00  0.00    +0.243 C 
ATOM     46  N   MET A   3      27.213 -12.697  18.806  0.00  0.00    -0.297 N 
ATOM     47  H   MET A   3      26.900 -13.635  19.129  0.00  0.00    +0.150 HD
ATOM     48  O   THR A   2      28.460 -11.499  17.373  0.00  0.00    -0.273 OA
BRANCH  45  49
ATOM     49  CA  THR A   2      28.480 -13.881  17.079  0.00  0.00    +0.176 C 
BRANCH  49  52
ATOM     50  C   GLY A   1      29.881 -14.777  18.867  0.00  0.00    +0.240 C 
ATOM     51  O   GLY A   1      30.675 -13.824  18.818  0.00  0.00    -0.274 OA
ATOM     52  N   THR A   2      28.816 -14.884  18.074  0.00  0.00    -0.295 N 
ATOM     53  H   THR A   2      28.202 -15.718  18.171  0.00  0.00    +0.150 HD
BRANCH  50  54
ATOM     54  CA  GLY A   1      30.072 -15.905  19.862  0.00  0.00    +0.169 C 
BRANCH  54  55
ATOM     55  N   GLY A   1      28.822 -16.239  20.545  0.00  0.00    -0.236 NA
ATOM     56  H   GLY A   1      28.429 -17.197  20.454  0.00  0.00    +0.142 HD
ENDBRANCH  54  55
ENDBRANCH  50  54
ENDBRANCH  49  52
BRANCH  49  57
ATOM     57  CB  THR A   2      27.423 -14.415  16.097  0.00  0.00    +0.137 C 
ATOM     58  CG2 THR A   2      27.088 -13.384  15.026  0.00  0.00    +0.034 C 
BRANCH  57  59
ATOM     59  OG1 THR A   2      27.943 -15.606  15.459  0.00  0.00    -0.382 OA
ATOM     60  HG1 THR A   2      28.139 -16.289  16.148  0.00  0.00    +0.210 HD
ENDBRANCH  57  59
ENDBRANCH  49  57
ENDBRANCH  45  49
ENDBRANCH  44  46
BRANCH  44  61
ATOM     61  CB  MET A   3      25.656 -11.779  20.541  0.00  0.00    +0.041 C 
BRANCH  61  62
ATOM     62  CG  MET A   3      24.300 -12.004  19.886  0.00  0.00    +0.060 C 
BRANCH  62  63
ATOM     63  SD  MET A   3      22.914 -12.081  21.017  0.00  0.00    -0.139 S 
ATOM     64  CE  MET A   3      23.234 -13.645  21.837  0.00  0.00    +0.069 C 
ENDBRANCH  62  63
ENDBRANCH  61  62
ENDBRANCH  44  61
ENDBRANCH  40  44
ENDBRANCH  39  41
BRANCH  39  65
ATOM     65  CB  GLU A   4      30.920 -11.726  22.130  0.00  0.00    +0.041 C 
BRANCH  65  66
ATOM     66  CG  GLU A   4      30.300 -12.333  23.373  0.00  0.00    +0.116 C 
BRANCH  66  67
ATOM     67  CD  GLU A   4      30.207 -11.401  24.562  0.00  0.00    +0.365 C 
ATOM     68  OE2 GLU A   4      29.638 -11.861  25.572  0.00  0.00    -0.246 OA
ATOM     69  OE1 GLU A   4      30.695 -10.232  24.522  0.00  0.00    -0.246 OA
ENDBRANCH  66  67
ENDBRANCH  65  66
ENDBRANCH  39  65
ENDBRANCH   1  39
TORSDOF 32
REMARK  Name = ../refined-set-2016/4cg8/4cg8_pocket.pdb
REMARK  240 active torsions:
REMARK  status: ('A' for Active; 'I' for Inactive)
REMARK    1  A    between atoms: _1  and  _3
REMARK    2  A    between atoms: _3  and  _4
REMARK    3  A    between atoms: _3  and  _6
REMARK    4  A    between atoms: _6  and  _7
REMARK    5  A    between atoms: _7  and  _8
REMARK    6  A    between atoms: _8  and  _9
REMARK    7  A    between atoms: _18  and  _20
REMARK    8  A    between atoms: _20  and  _21
REMARK    9  A    between atoms: _20  and  _23
REMARK   10  A    between atoms: _23  and  _24
REMARK   11  A    between atoms: _26  and  _28
REMARK   12  A    between atoms: _28  and  _29
REMARK   13  A    between atoms: _28  and  _31
REMARK   14  A    between atoms: _31  and  _32
REMARK   15  A    between atoms: _37  and  _39
REMARK   16  A    between atoms: _39  and  _40
REMARK   17  A    between atoms: _39  and  _42
REMARK   18  A    between atoms: _42  and  _43
REMARK   19  A    between atoms: _46  and  _48
REMARK   20  A    between atoms: _48  and  _49
REMARK   21  A    between atoms: _48  and  _51
REMARK   22  A    between atoms: _51  and  _52
REMARK   23  A    between atoms: _62  and  _64
REMARK   24  A    between atoms: _64  and  _65
REMARK   25  A    between atoms: _64  and  _67
REMARK   26  A    between atoms: _67  and  _68
REMARK   27  A    between atoms: _71  and  _73
REMARK   28  A    between atoms: _73  and  _74
REMARK   29  A    between atoms: _76  and  _78
REMARK   30  A    between atoms: _78  and  _79
REMARK   31  A    between atoms: _78  and  _81
REMARK   32  A    between atoms: _81  and  _82
REMARK   33  A    between atoms: _85  and  _87
REMARK   34  A    between atoms: _87  and  _88
REMARK   35  A    between atoms: _87  and  _90
REMARK   36  A    between atoms: _90  and  _91
REMARK   37  A    between atoms: _91  and  _92
REMARK   38  A    between atoms: _94  and  _96
REMARK   39  A    between atoms: _96  and  _97
REMARK   40  A    between atoms: _96  and  _99
REMARK   41  A    between atoms: _99  and  _100
REMARK   42  A    between atoms: _100  and  _101
REMARK   43  A    between atoms: _104  and  _106
REMARK   44  A    between atoms: _106  and  _107
REMARK   45  A    between atoms: _106  and  _109
REMARK   46  A    between atoms: _109  and  _110
REMARK   47  A    between atoms: _110  and  _111
REMARK   48  A    between atoms: _111  and  _112
REMARK   49  A    between atoms: _112  and  _113
REMARK   50  A    between atoms: _117  and  _119
REMARK   51  A    between atoms: _119  and  _120
REMARK   52  A    between atoms: _119  and  _122
REMARK   53  A    between atoms: _122  and  _123
REMARK   54  A    between atoms: _128  and  _129
REMARK   55  A    between atoms: _131  and  _133
REMARK   56  A    between atoms: _133  and  _134
REMARK   57  A    between atoms: _133  and  _136
REMARK   58  A    between atoms: _136  and  _137
REMARK   59  A    between atoms: _140  and  _142
REMARK   60  A    between atoms: _142  and  _143
REMARK   61  A    between atoms: _142  and  _145
REMARK   62  A    between atoms: _145  and  _146
REMARK   63  A    between atoms: _151  and  _153
REMARK   64  A    between atoms: _153  and  _154
REMARK   65  A    between atoms: _153  and  _156
REMARK   66  A    between atoms: _156  and  _157
REMARK   67  A    between atoms: _162  and  _164
REMARK   68  A    between atoms: _164  and  _165
REMARK   69  A    between atoms: _164  and  _167
REMARK   70  A    between atoms: _167  and  _168
REMARK   71  A    between atoms: _171  and  _173
REMARK   72  A    between atoms: _173  and  _174
REMARK   73  A    between atoms: _173  and  _176
REMARK   74  A    between atoms: _178  and  _180
REMARK   75  A    between atoms: _180  and  _181
REMARK   76  A    between atoms: _180  and  _183
REMARK   77  A    between atoms: _183  and  _184
REMARK   78  A    between atoms: _184  and  _185
REMARK   79  A    between atoms: _190  and  _192
REMARK   80  A    between atoms: _192  and  _193
REMARK   81  A    between atoms: _192  and  _195
REMARK   82  A    between atoms: _195  and  _196
REMARK   83  A    between atoms: _196  and  _197
REMARK   84  A    between atoms: _200  and  _202
REMARK   85  A    between atoms: _202  and  _203
REMARK   86  A    between atoms: _205  and  _207
REMARK   87  A    between atoms: _207  and  _208
REMARK   88  A    between atoms: _207  and  _210
REMARK   89  A    between atoms: _210  and  _211
REMARK   90  A    between atoms: _216  and  _218
REMARK   91  A    between atoms: _218  and  _219
REMARK   92  A    between atoms: _218  and  _221
REMARK   93  A    between atoms: _221  and  _222
REMARK   94  A    between atoms: _225  and  _227
REMARK   95  A    between atoms: _227  and  _228
REMARK   96  A    between atoms: _227  and  _230
REMARK   97  A    between atoms: _230  and  _231
REMARK   98  A    between atoms: _231  and  _232
REMARK   99  A    between atoms: _235  and  _237
REMARK  100  A    between atoms: _237  and  _238
REMARK  101  A    between atoms: _237  and  _240
REMARK  102  A    between atoms: _240  and  _241
REMARK  103  A    between atoms: _246  and  _247
REMARK  104  A    between atoms: _249  and  _251
REMARK  105  A    between atoms: _251  and  _252
REMARK  106  A    between atoms: _251  and  _254
REMARK  107  A    between atoms: _254  and  _255
REMARK  108  A    between atoms: _257  and  _259
REMARK  109  A    between atoms: _259  and  _260
REMARK  110  A    between atoms: _259  and  _262
REMARK  111  A    between atoms: _262  and  _263
REMARK  112  A    between atoms: _268  and  _270
REMARK  113  A    between atoms: _270  and  _271
REMARK  114  A    between atoms: _270  and  _273
REMARK  115  A    between atoms: _273  and  _274
REMARK  116  A    between atoms: _280  and  _282
REMARK  117  A    between atoms: _282  and  _283
REMARK  118  A    between atoms: _282  and  _285
REMARK  119  A    between atoms: _285  and  _286
REMARK  120  A    between atoms: _291  and  _293
REMARK  121  A    between atoms: _293  and  _294
REMARK  122  A    between atoms: _293  and  _296
REMARK  123  A    between atoms: _296  and  _297
REMARK  124  A    between atoms: _297  and  _298
REMARK  125  A    between atoms: _301  and  _303
REMARK  126  A    between atoms: _303  and  _304
REMARK  127  A    between atoms: _303  and  _306
REMARK  128  A    between atoms: _306  and  _307
REMARK  129  A    between atoms: _312  and  _313
REMARK  130  A    between atoms: _315  and  _317
REMARK  131  A    between atoms: _317  and  _318
REMARK  132  A    between atoms: _317  and  _320
REMARK  133  A    between atoms: _320  and  _321
REMARK  134  A    between atoms: _324  and  _326
REMARK  135  A    between atoms: _326  and  _327
REMARK  136  A    between atoms: _326  and  _329
REMARK  137  A    between atoms: _329  and  _330
REMARK  138  A    between atoms: _335  and  _336
REMARK  139  A    between atoms: _338  and  _340
REMARK  140  A    between atoms: _340  and  _341
REMARK  141  A    between atoms: _340  and  _343
REMARK  142  A    between atoms: _343  and  _344
REMARK  143  A    between atoms: _346  and  _348
REMARK  144  A    between atoms: _348  and  _349
REMARK  145  A    between atoms: _348  and  _351
REMARK  146  A    between atoms: _351  and  _352
REMARK  147  A    between atoms: _357  and  _358
REMARK  148  A    between atoms: _360  and  _362
REMARK  149  A    between atoms: _362  and  _363
REMARK  150  A    between atoms: _362  and  _365
REMARK  151  A    between atoms: _365  and  _366
REMARK  152  A    between atoms: _372  and  _374
REMARK  153  A    between atoms: _374  and  _375
REMARK  154  A    between atoms: _374  and  _377
REMARK  155  A    between atoms: _377  and  _378
REMARK  156  A    between atoms: _384  and  _386
REMARK  157  A    between atoms: _386  and  _387
REMARK  158  A    between atoms: _390  and  _392
REMARK  159  A    between atoms: _392  and  _393
REMARK  160  A    between atoms: _392  and  _395
REMARK  161  A    between atoms: _395  and  _396
REMARK  162  A    between atoms: _398  and  _400
REMARK  163  A    between atoms: _400  and  _401
REMARK  164  A    between atoms: _400  and  _403
REMARK  165  A    between atoms: _403  and  _404
REMARK  166  A    between atoms: _410  and  _412
REMARK  167  A    between atoms: _412  and  _413
REMARK  168  A    between atoms: _412  and  _415
REMARK  169  A    between atoms: _415  and  _416
REMARK  170  A    between atoms: _419  and  _421
REMARK  171  A    between atoms: _421  and  _422
REMARK  172  A    between atoms: _421  and  _424
REMARK  173  A    between atoms: _424  and  _425
REMARK  174  A    between atoms: _435  and  _437
REMARK  175  A    between atoms: _437  and  _438
REMARK  176  A    between atoms: _440  and  _442
REMARK  177  A    between atoms: _442  and  _443
REMARK  178  A    between atoms: _442  and  _445
REMARK  179  A    between atoms: _445  and  _446
REMARK  180  A    between atoms: _449  and  _451
REMARK  181  A    between atoms: _451  and  _452
REMARK  182  A    between atoms: _451  and  _454
REMARK  183  A    between atoms: _454  and  _455
REMARK  184  A    between atoms: _465  and  _467
REMARK  185  A    between atoms: _467  and  _468
REMARK  186  A    between atoms: _467  and  _470
REMARK  187  A    between atoms: _470  and  _471
REMARK  188  A    between atoms: _473  and  _475
REMARK  189  A    between atoms: _475  and  _476
REMARK  190  A    between atoms: _475  and  _478
REMARK  191  A    between atoms: _478  and  _479
REMARK  192  A    between atoms: _482  and  _484
REMARK  193  A    between atoms: _484  and  _485
REMARK  194  A    between atoms: _484  and  _487
REMARK  195  A    between atoms: _490  and  _492
REMARK  196  A    between atoms: _492  and  _493
REMARK  197  A    between atoms: _492  and  _495
REMARK  198  A    between atoms: _495  and  _496
REMARK  199  A    between atoms: _496  and  _497
REMARK  200  A    between atoms: _502  and  _504
REMARK  201  A    between atoms: _504  and  _505
REMARK  202  A    between atoms: _504  and  _507
REMARK  203  A    between atoms: _507  and  _508
REMARK  204  A    between atoms: _510  and  _512
REMARK  205  A    between atoms: _512  and  _513
REMARK  206  A    between atoms: _512  and  _515
REMARK  207  A    between atoms: _515  and  _516
REMARK  208  A    between atoms: _518  and  _520
REMARK  209  A    between atoms: _520  and  _521
REMARK  210  A    between atoms: _520  and  _523
REMARK  211  A    between atoms: _523  and  _524
REMARK  212  A    between atoms: _527  and  _529
REMARK  213  A    between atoms: _529  and  _530
REMARK  214  A    between atoms: _529  and  _532
REMARK  215  A    between atoms: _532  and  _533
REMARK  216  A    between atoms: _533  and  _534
REMARK  217  A    between atoms: _537  and  _539
REMARK  218  A    between atoms: _539  and  _540
REMARK  219  A    between atoms: _539  and  _542
REMARK  220  A    between atoms: _542  and  _543
REMARK  221  A    between atoms: _549  and  _551
REMARK  222  A    between atoms: _551  and  _552
REMARK  223  A    between atoms: _554  and  _556
REMARK  224  A    between atoms: _556  and  _557
REMARK  225  A    between atoms: _556  and  _559
REMARK  226  A    between atoms: _559  and  _560
REMARK  227  A    between atoms: _565  and  _566
REMARK  228  A    between atoms: _568  and  _570
REMARK  229  A    between atoms: _570  and  _571
REMARK  230  A    between atoms: _570  and  _573
REMARK  231  A    between atoms: _573  and  _574
REMARK  232  A    between atoms: _579  and  _580
REMARK  233  A    between atoms: _582  and  _584
REMARK  234  A    between atoms: _584  and  _585
REMARK  235  A    between atoms: _588  and  _590
REMARK  236  A    between atoms: _590  and  _591
REMARK  237  A    between atoms: _590  and  _593
REMARK  238  A    between atoms: _593  and  _594
REMARK  239  A    between atoms: _594  and  _595
REMARK  240  A    between atoms: _595  and  _596
REMARK                            x       y       z     vdW  Elec       q    Type
REMARK                         _______ _______ _______ _____ _____    ______ ____
ROOT
ATOM      1  C   CYS A   4      12.676 -17.850   8.750  0.00  0.00    +0.242 C 
ATOM      2  O   CYS A   4      11.884 -17.611   9.657  0.00  0.00    -0.273 OA
ATOM      3  N   GLN A   5      12.667 -17.175   7.614  0.00  0.00    -0.297 N 
ATOM      4  H   GLN A   5      13.395 -17.364   6.896  0.00  0.00    +0.150 HD
ENDROOT
BRANCH   3   5
ATOM      5  CA  GLN A   5      11.637 -16.161   7.358  0.00  0.00    +0.149 C 
BRANCH   5   6
ATOM      6  C   GLN A   5      11.146 -16.255   5.925  0.00  0.00    +0.241 C 
ATOM      7  N   GLU A   6      10.151 -15.444   5.598  0.00  0.00    -0.297 N 
ATOM      8  H   GLU A   6       9.895 -14.668   6.241  0.00  0.00    +0.150 HD
ATOM      9  O   GLN A   5      11.648 -17.047   5.139  0.00  0.00    -0.273 OA
BRANCH   7  10
ATOM     10  CA  GLU A   6       9.408 -15.617   4.357  0.00  0.00    +0.149 C 
BRANCH  10  11
ATOM     11  C   GLU A   6      10.275 -15.585   3.088  0.00  0.00    +0.241 C 
ATOM     12  N   GLY A   7      11.332 -14.768   3.103  0.00  0.00    -0.295 N 
ATOM     13  H   GLY A   7      11.508 -14.185   3.946  0.00  0.00    +0.150 HD
ATOM     14  O   GLU A   6      10.001 -16.305   2.122  0.00  0.00    -0.273 OA
BRANCH  12  15
ATOM     15  CA  GLY A   7      12.256 -14.668   1.960  0.00  0.00    +0.176 C 
BRANCH  15  16
ATOM     16  C   GLY A   7      13.000 -15.952   1.640  0.00  0.00    +0.243 C 
ATOM     17  N   ASN A   8      13.070 -16.849   2.631  0.00  0.00    -0.298 N 
ATOM     18  H   ASN A   8      12.582 -16.642   3.526  0.00  0.00    +0.150 HD
ATOM     19  O   GLY A   7      13.503 -16.125   0.517  0.00  0.00    -0.273 OA
BRANCH  17  20
ATOM     20  CA  ASN A   8      13.808 -18.115   2.507  0.00  0.00    +0.146 C 
BRANCH  20  21
ATOM     21  C   ASN A   8      12.895 -19.322   2.473  0.00  0.00    +0.227 C 
ATOM     22  O   ASN A   8      13.336 -20.438   2.744  0.00  0.00    -0.286 OA
ENDBRANCH  20  21
BRANCH  20  23
ATOM     23  CB  ASN A   8      14.838 -18.257   3.642  0.00  0.00    +0.112 C 
BRANCH  23  24
ATOM     24  CG  ASN A   8      15.889 -17.177   3.595  0.00  0.00    +0.222 C 
ATOM     25  ND2 ASN A   8      16.381 -16.770   4.769  0.00  0.00    -0.329 N 
ATOM     26 HD21 ASN A   8      16.055 -17.214   5.651  0.00  0.00    +0.145 HD
ATOM     27 HD22 ASN A   8      17.090 -16.010   4.800  0.00  0.00    +0.145 HD
ATOM     28  OD1 ASN A   8      16.239 -16.686   2.505  0.00  0.00    -0.275 OA
ENDBRANCH  23  24
ENDBRANCH  20  23
ENDBRANCH  17  20
ENDBRANCH  15  16
ENDBRANCH  12  15
ENDBRANCH  10  11
BRANCH  10  29
ATOM     29  CB  GLU A   6       8.223 -14.642   4.309  0.00  0.00    +0.041 C 
BRANCH  29  30
ATOM     30  CG  GLU A   6       8.607 -13.162   4.229  0.00  0.00    +0.116 C 
BRANCH  30  31
ATOM     31  CD  GLU A   6       9.014 -12.526   5.551  0.00  0.00    +0.365 C 
ATOM     32  OE2 GLU A   6       9.096 -13.195   6.595  0.00  0.00    -0.246 OA
ATOM     33  OE1 GLU A   6       9.278 -11.300   5.527  0.00  0.00    -0.246 OA
ENDBRANCH  30  31
ENDBRANCH  29  30
ENDBRANCH  10  29
ENDBRANCH   7  10
ENDBRANCH   5   6
BRANCH   5  34
ATOM     34  CB  GLN A   5      12.132 -14.761   7.694  0.00  0.00    +0.039 C 
BRANCH  34  35
ATOM     35  CG  GLN A   5      13.579 -14.517   7.353  0.00  0.00    +0.087 C 
BRANCH  35  36
ATOM     36  CD  GLN A   5      13.796 -13.988   5.969  0.00  0.00    +0.219 C 
ATOM     37  NE2 GLN A   5      15.051 -13.652   5.667  0.00  0.00    -0.329 N 
ATOM     38 HE21 GLN A   5      15.814 -13.818   6.354  0.00  0.00    +0.145 HD
ATOM     39 HE22 GLN A   5      15.267 -13.224   4.744  0.00  0.00    +0.145 HD
ATOM     40  OE1 GLN A   5      12.851 -13.812   5.187  0.00  0.00    -0.275 OA
ENDBRANCH  35  36
ENDBRANCH  34  35
ENDBRANCH   5  34
ENDBRANCH   3   5
BRANCH   1  41
ATOM     41  CA  CYS A   4      13.775 -18.921   8.873  0.00  0.00    +0.160 C 
BRANCH  41  43
ATOM     42  C   ASP A   3      15.893 -17.764   8.650  0.00  0.00    +0.241 C 
ATOM     43  N   CYS A   4      15.013 -18.387   9.439  0.00  0.00    -0.296 N 
ATOM     44  H   CYS A   4      15.208 -18.492  10.455  0.00  0.00    +0.150 HD
ATOM     45  O   ASP A   3      15.658 -17.522   7.473  0.00  0.00    -0.273 OA
BRANCH  42  46
ATOM     46  CA  ASP A   3      17.230 -17.356   9.277  0.00  0.00    +0.160 C 
BRANCH  46  49
ATOM     47  C   ASN A   2      18.585 -18.268  11.074  0.00  0.00    +0.241 C 
ATOM     48  O   ASN A   2      18.900 -17.139  11.450  0.00  0.00    -0.273 OA
ATOM     49  N   ASP A   3      17.763 -18.480  10.052  0.00  0.00    -0.297 N 
ATOM     50  H   ASP A   3      17.495 -19.453   9.800  0.00  0.00    +0.150 HD
BRANCH  47  51
ATOM     51  CA  ASN A   2      19.151 -19.490  11.791  0.00  0.00    +0.158 C 
BRANCH  51  53
ATOM     52  C   HIS A   1      19.211 -21.374  10.137  0.00  0.00    +0.239 C 
ATOM     53  N   ASN A   2      18.734 -20.809  11.251  0.00  0.00    -0.297 N 
ATOM     54  H   ASN A   2      18.012 -21.336  11.783  0.00  0.00    +0.150 HD
ATOM     55  O   HIS A   1      20.045 -20.844   9.399  0.00  0.00    -0.274 OA
BRANCH  52  56
ATOM     56  CA  HIS A   1      18.650 -22.738   9.803  0.00  0.00    +0.151 C 
BRANCH  56  57
ATOM     57  N   HIS A   1      18.589 -23.599  10.977  0.00  0.00    -0.238 NA
ATOM     58  H   HIS A   1      17.663 -23.863  11.370  0.00  0.00    +0.142 HD
ENDBRANCH  56  57
BRANCH  56  59
ATOM     59  CB  HIS A   1      17.253 -22.636   9.208  0.00  0.00    +0.074 C 
BRANCH  59  60
ATOM     60  CG  HIS A   1      17.203 -21.894   7.911  0.00  0.00    +0.082 A 
ATOM     61  ND1 HIS A   1      17.201 -20.543   7.854  0.00  0.00    -0.227 NA
ATOM     62  CE1 HIS A   1      17.159 -20.153   6.574  0.00  0.00    +0.199 A 
ATOM     63  NE2 HIS A   1      17.099 -21.257   5.802  0.00  0.00    -0.221 NA
ATOM     64  CD2 HIS A   1      17.117 -22.347   6.603  0.00  0.00    +0.115 A 
ENDBRANCH  59  60
ENDBRANCH  56  59
ENDBRANCH  52  56
ENDBRANCH  51  53
BRANCH  51  65
ATOM     65  CB  ASN A   2      20.674 -19.368  11.914  0.00  0.00    +0.114 C 
BRANCH  65  66
ATOM     66  CG  ASN A   2      21.250 -20.324  12.959  0.00  0.00    +0.222 C 
ATOM     67  OD1 ASN A   2      20.634 -20.573  13.994  0.00  0.00    -0.275 OA
ATOM     68  ND2 ASN A   2      22.413 -20.871  12.674  0.00  0.00    -0.329 N 
ATOM     69 HD21 ASN A   2      22.847 -21.544  13.337  0.00  0.00    +0.145 HD
ATOM     70 HD22 ASN A   2      22.897 -20.630  11.786  0.00  0.00    +0.145 HD
ENDBRANCH  65  66
ENDBRANCH  51  65
ENDBRANCH  47  51
ENDBRANCH  46  49
BRANCH  46  71
ATOM     71  CB  ASP A   3      18.265 -16.925   8.201  0.00  0.00    +0.143 C 
BRANCH  71  72
ATOM     72  CG  ASP A   3      17.894 -15.632   7.498  0.00  0.00    +0.367 C 
ATOM     73  OD2 ASP A   3      17.111 -14.833   8.057  0.00  0.00    -0.246 OA
ATOM     74  OD1 ASP A   3      18.388 -15.425   6.369  0.00  0.00    -0.246 OA
ENDBRANCH  71  72
ENDBRANCH  46  71
ENDBRANCH  42  46
ENDBRANCH  41  43
BRANCH  41  75
ATOM     75  CB  CYS A   4      13.303 -20.179   9.624  0.00  0.00    +0.098 C 
ATOM     76  SG  CYS A   4      11.876 -20.977   8.837  0.00  0.00    -0.080 S 
ENDBRANCH  41  75
ENDBRANCH   1  41
TORSDOF 31
REMARK  Name = ../refined-set-2016/4cg8/4cg8_pocket.pdb
REMARK  240 active torsions:
REMARK  status: ('A' for Active; 'I' for Inactive)
REMARK    1  A    between atoms: _1  and  _3
REMARK    2  A    between atoms: _3  and  _4
REMARK    3  A    between atoms: _3  and  _6
REMARK    4  A    between atoms: _6  and  _7
REMARK    5  A    between atoms: _7  and  _8
REMARK    6  A    between atoms: _8  and  _9
REMARK    7  A    between atoms: _18  and  _20
REMARK    8  A    between atoms: _20  and  _21
REMARK    9  A    between atoms: _20  and  _23
REMARK   10  A    between atoms: _23  and  _24
REMARK   11  A    between atoms: _26  and  _28
REMARK   12  A    between atoms: _28  and  _29
REMARK   13  A    between atoms: _28  and  _31
REMARK   14  A    between atoms: _31  and  _32
REMARK   15  A    between atoms: _37  and  _39
REMARK   16  A    between atoms: _39  and  _40
REMARK   17  A    between atoms: _39  and  _42
REMARK   18  A    between atoms: _42  and  _43
REMARK   19  A    between atoms: _46  and  _48
REMARK   20  A    between atoms: _48  and  _49
REMARK   21  A    between atoms: _48  and  _51
REMARK   22  A    between atoms: _51  and  _52
REMARK   23  A    between atoms: _62  and  _64
REMARK   24  A    between atoms: _64  and  _65
REMARK   25  A    between atoms: _64  and  _67
REMARK   26  A    between atoms: _67  and  _68
REMARK   27  A    between atoms: _71  and  _73
REMARK   28  A    between atoms: _73  and  _74
REMARK   29  A    between atoms: _76  and  _78
REMARK   30  A    between atoms: _78  and  _79
REMARK   31  A    between atoms: _78  and  _81
REMARK   32  A    between atoms: _81  and  _82
REMARK   33  A    between atoms: _85  and  _87
REMARK   34  A    between atoms: _87  and  _88
REMARK   35  A    between atoms: _87  and  _90
REMARK   36  A    between atoms: _90  and  _91
REMARK   37  A    between atoms: _91  and  _92
REMARK   38  A    between atoms: _94  and  _96
REMARK   39  A    between atoms: _96  and  _97
REMARK   40  A    between atoms: _96  and  _99
REMARK   41  A    between atoms: _99  and  _100
REMARK   42  A    between atoms: _100  and  _101
REMARK   43  A    between atoms: _104  and  _106
REMARK   44  A    between atoms: _106  and  _107
REMARK   45  A    between atoms: _106  and  _109
REMARK   46  A    between atoms: _109  and  _110
REMARK   47  A    between atoms: _110  and  _111
REMARK   48  A    between atoms: _111  and  _112
REMARK   49  A    between atoms: _112  and  _113
REMARK   50  A    between atoms: _117  and  _119
REMARK   51  A    between atoms: _119  and  _120
REMARK   52  A    between atoms: _119  and  _122
REMARK   53  A    between atoms: _122  and  _123
REMARK   54  A    between atoms: _128  and  _129
REMARK   55  A    between atoms: _131  and  _133
REMARK   56  A    between atoms: _133  and  _134
REMARK   57  A    between atoms: _133  and  _136
REMARK   58  A    between atoms: _136  and  _137
REMARK   59  A    between atoms: _140  and  _142
REMARK   60  A    between atoms: _142  and  _143
REMARK   61  A    between atoms: _142  and  _145
REMARK   62  A    between atoms: _145  and  _146
REMARK   63  A    between atoms: _151  and  _153
REMARK   64  A    between atoms: _153  and  _154
REMARK   65  A    between atoms: _153  and  _156
REMARK   66  A    between atoms: _156  and  _157
REMARK   67  A    between atoms: _162  and  _164
REMARK   68  A    between atoms: _164  and  _165
REMARK   69  A    between atoms: _164  and  _167
REMARK   70  A    between atoms: _167  and  _168
REMARK   71  A    between atoms: _171  and  _173
REMARK   72  A    between atoms: _173  and  _174
REMARK   73  A    between atoms: _173  and  _176
REMARK   74  A    between atoms: _178  and  _180
REMARK   75  A    between atoms: _180  and  _181
REMARK   76  A    between atoms: _180  and  _183
REMARK   77  A    between atoms: _183  and  _184
REMARK   78  A    between atoms: _184  and  _185
REMARK   79  A    between atoms: _190  and  _192
REMARK   80  A    between atoms: _192  and  _193
REMARK   81  A    between atoms: _192  and  _195
REMARK   82  A    between atoms: _195  and  _196
REMARK   83  A    between atoms: _196  and  _197
REMARK   84  A    between atoms: _200  and  _202
REMARK   85  A    between atoms: _202  and  _203
REMARK   86  A    between atoms: _205  and  _207
REMARK   87  A    between atoms: _207  and  _208
REMARK   88  A    between atoms: _207  and  _210
REMARK   89  A    between atoms: _210  and  _211
REMARK   90  A    between atoms: _216  and  _218
REMARK   91  A    between atoms: _218  and  _219
REMARK   92  A    between atoms: _218  and  _221
REMARK   93  A    between atoms: _221  and  _222
REMARK   94  A    between atoms: _225  and  _227
REMARK   95  A    between atoms: _227  and  _228
REMARK   96  A    between atoms: _227  and  _230
REMARK   97  A    between atoms: _230  and  _231
REMARK   98  A    between atoms: _231  and  _232
REMARK   99  A    between atoms: _235  and  _237
REMARK  100  A    between atoms: _237  and  _238
REMARK  101  A    between atoms: _237  and  _240
REMARK  102  A    between atoms: _240  and  _241
REMARK  103  A    between atoms: _246  and  _247
REMARK  104  A    between atoms: _249  and  _251
REMARK  105  A    between atoms: _251  and  _252
REMARK  106  A    between atoms: _251  and  _254
REMARK  107  A    between atoms: _254  and  _255
REMARK  108  A    between atoms: _257  and  _259
REMARK  109  A    between atoms: _259  and  _260
REMARK  110  A    between atoms: _259  and  _262
REMARK  111  A    between atoms: _262  and  _263
REMARK  112  A    between atoms: _268  and  _270
REMARK  113  A    between atoms: _270  and  _271
REMARK  114  A    between atoms: _270  and  _273
REMARK  115  A    between atoms: _273  and  _274
REMARK  116  A    between atoms: _280  and  _282
REMARK  117  A    between atoms: _282  and  _283
REMARK  118  A    between atoms: _282  and  _285
REMARK  119  A    between atoms: _285  and  _286
REMARK  120  A    between atoms: _291  and  _293
REMARK  121  A    between atoms: _293  and  _294
REMARK  122  A    between atoms: _293  and  _296
REMARK  123  A    between atoms: _296  and  _297
REMARK  124  A    between atoms: _297  and  _298
REMARK  125  A    between atoms: _301  and  _303
REMARK  126  A    between atoms: _303  and  _304
REMARK  127  A    between atoms: _303  and  _306
REMARK  128  A    between atoms: _306  and  _307
REMARK  129  A    between atoms: _312  and  _313
REMARK  130  A    between atoms: _315  and  _317
REMARK  131  A    between atoms: _317  and  _318
REMARK  132  A    between atoms: _317  and  _320
REMARK  133  A    between atoms: _320  and  _321
REMARK  134  A    between atoms: _324  and  _326
REMARK  135  A    between atoms: _326  and  _327
REMARK  136  A    between atoms: _326  and  _329
REMARK  137  A    between atoms: _329  and  _330
REMARK  138  A    between atoms: _335  and  _336
REMARK  139  A    between atoms: _338  and  _340
REMARK  140  A    between atoms: _340  and  _341
REMARK  141  A    between atoms: _340  and  _343
REMARK  142  A    between atoms: _343  and  _344
REMARK  143  A    between atoms: _346  and  _348
REMARK  144  A    between atoms: _348  and  _349
REMARK  145  A    between atoms: _348  and  _351
REMARK  146  A    between atoms: _351  and  _352
REMARK  147  A    between atoms: _357  and  _358
REMARK  148  A    between atoms: _360  and  _362
REMARK  149  A    between atoms: _362  and  _363
REMARK  150  A    between atoms: _362  and  _365
REMARK  151  A    between atoms: _365  and  _366
REMARK  152  A    between atoms: _372  and  _374
REMARK  153  A    between atoms: _374  and  _375
REMARK  154  A    between atoms: _374  and  _377
REMARK  155  A    between atoms: _377  and  _378
REMARK  156  A    between atoms: _384  and  _386
REMARK  157  A    between atoms: _386  and  _387
REMARK  158  A    between atoms: _390  and  _392
REMARK  159  A    between atoms: _392  and  _393
REMARK  160  A    between atoms: _392  and  _395
REMARK  161  A    between atoms: _395  and  _396
REMARK  162  A    between atoms: _398  and  _400
REMARK  163  A    between atoms: _400  and  _401
REMARK  164  A    between atoms: _400  and  _403
REMARK  165  A    between atoms: _403  and  _404
REMARK  166  A    between atoms: _410  and  _412
REMARK  167  A    between atoms: _412  and  _413
REMARK  168  A    between atoms: _412  and  _415
REMARK  169  A    between atoms: _415  and  _416
REMARK  170  A    between atoms: _419  and  _421
REMARK  171  A    between atoms: _421  and  _422
REMARK  172  A    between atoms: _421  and  _424
REMARK  173  A    between atoms: _424  and  _425
REMARK  174  A    between atoms: _435  and  _437
REMARK  175  A    between atoms: _437  and  _438
REMARK  176  A    between atoms: _440  and  _442
REMARK  177  A    between atoms: _442  and  _443
REMARK  178  A    between atoms: _442  and  _445
REMARK  179  A    between atoms: _445  and  _446
REMARK  180  A    between atoms: _449  and  _451
REMARK  181  A    between atoms: _451  and  _452
REMARK  182  A    between atoms: _451  and  _454
REMARK  183  A    between atoms: _454  and  _455
REMARK  184  A    between atoms: _465  and  _467
REMARK  185  A    between atoms: _467  and  _468
REMARK  186  A    between atoms: _467  and  _470
REMARK  187  A    between atoms: _470  and  _471
REMARK  188  A    between atoms: _473  and  _475
REMARK  189  A    between atoms: _475  and  _476
REMARK  190  A    between atoms: _475  and  _478
REMARK  191  A    between atoms: _478  and  _479
REMARK  192  A    between atoms: _482  and  _484
REMARK  193  A    between atoms: _484  and  _485
REMARK  194  A    between atoms: _484  and  _487
REMARK  195  A    between atoms: _490  and  _492
REMARK  196  A    between atoms: _492  and  _493
REMARK  197  A    between atoms: _492  and  _495
REMARK  198  A    between atoms: _495  and  _496
REMARK  199  A    between atoms: _496  and  _497
REMARK  200  A    between atoms: _502  and  _504
REMARK  201  A    between atoms: _504  and  _505
REMARK  202  A    between atoms: _504  and  _507
REMARK  203  A    between atoms: _507  and  _508
REMARK  204  A    between atoms: _510  and  _512
REMARK  205  A    between atoms: _512  and  _513
REMARK  206  A    between atoms: _512  and  _515
REMARK  207  A    between atoms: _515  and  _516
REMARK  208  A    between atoms: _518  and  _520
REMARK  209  A    between atoms: _520  and  _521
REMARK  210  A    between atoms: _520  and  _523
REMARK  211  A    between atoms: _523  and  _524
REMARK  212  A    between atoms: _527  and  _529
REMARK  213  A    between atoms: _529  and  _530
REMARK  214  A    between atoms: _529  and  _532
REMARK  215  A    between atoms: _532  and  _533
REMARK  216  A    between atoms: _533  and  _534
REMARK  217  A    between atoms: _537  and  _539
REMARK  218  A    between atoms: _539  and  _540
REMARK  219  A    between atoms: _539  and  _542
REMARK  220  A    between atoms: _542  and  _543
REMARK  221  A    between atoms: _549  and  _551
REMARK  222  A    between atoms: _551  and  _552
REMARK  223  A    between atoms: _554  and  _556
REMARK  224  A    between atoms: _556  and  _557
REMARK  225  A    between atoms: _556  and  _559
REMARK  226  A    between atoms: _559  and  _560
REMARK  227  A    between atoms: _565  and  _566
REMARK  228  A    between atoms: _568  and  _570
REMARK  229  A    between atoms: _570  and  _571
REMARK  230  A    between atoms: _570  and  _573
REMARK  231  A    between atoms: _573  and  _574
REMARK  232  A    between atoms: _579  and  _580
REMARK  233  A    between atoms: _582  and  _584
REMARK  234  A    between atoms: _584  and  _585
REMARK  235  A    between atoms: _588  and  _590
REMARK  236  A    between atoms: _590  and  _591
REMARK  237  A    between atoms: _590  and  _593
REMARK  238  A    between atoms: _593  and  _594
REMARK  239  A    between atoms: _594  and  _595
REMARK  240  A    between atoms: _595  and  _596
REMARK                            x       y       z     vdW  Elec       q    Type
REMARK                         _______ _______ _______ _____ _____    ______ ____
ROOT
ATOM      1  CA  ASP A   1      19.191 -20.447   1.806  0.00  0.00    +0.144 C 
ENDROOT
BRANCH   1   2
ATOM      2  N   ASP A   1      18.230 -21.479   1.362  0.00  0.00    -0.239 NA
ATOM      3  H   ASP A   1      18.481 -22.077   0.549  0.00  0.00    +0.142 HD
ENDBRANCH   1   2
BRANCH   1   4
ATOM      4  C   ASP A   1      19.717 -20.741   3.228  0.00  0.00    +0.225 C 
ATOM      5  O   ASP A   1      19.512 -19.953   4.165  0.00  0.00    -0.287 OA
ENDBRANCH   1   4
BRANCH   1   6
ATOM      6  CB  ASP A   1      18.605 -19.020   1.726  0.00  0.00    +0.139 C 
BRANCH   6   7
ATOM      7  CG  ASP A   1      18.273 -18.575   0.281  0.00  0.00    +0.367 C 
ATOM      8  OD2 ASP A   1      17.376 -17.708   0.106  0.00  0.00    -0.246 OA
ATOM      9  OD1 ASP A   1      18.888 -19.079  -0.673  0.00  0.00    -0.246 OA
ENDBRANCH   6   7
ENDBRANCH   1   6
TORSDOF 4
REMARK  Name = ../refined-set-2016/4cg8/4cg8_pocket.pdb
REMARK  240 active torsions:
REMARK  status: ('A' for Active; 'I' for Inactive)
REMARK    1  A    between atoms: _1  and  _3
REMARK    2  A    between atoms: _3  and  _4
REMARK    3  A    between atoms: _3  and  _6
REMARK    4  A    between atoms: _6  and  _7
REMARK    5  A    between atoms: _7  and  _8
REMARK    6  A    between atoms: _8  and  _9
REMARK    7  A    between atoms: _18  and  _20
REMARK    8  A    between atoms: _20  and  _21
REMARK    9  A    between atoms: _20  and  _23
REMARK   10  A    between atoms: _23  and  _24
REMARK   11  A    between atoms: _26  and  _28
REMARK   12  A    between atoms: _28  and  _29
REMARK   13  A    between atoms: _28  and  _31
REMARK   14  A    between atoms: _31  and  _32
REMARK   15  A    between atoms: _37  and  _39
REMARK   16  A    between atoms: _39  and  _40
REMARK   17  A    between atoms: _39  and  _42
REMARK   18  A    between atoms: _42  and  _43
REMARK   19  A    between atoms: _46  and  _48
REMARK   20  A    between atoms: _48  and  _49
REMARK   21  A    between atoms: _48  and  _51
REMARK   22  A    between atoms: _51  and  _52
REMARK   23  A    between atoms: _62  and  _64
REMARK   24  A    between atoms: _64  and  _65
REMARK   25  A    between atoms: _64  and  _67
REMARK   26  A    between atoms: _67  and  _68
REMARK   27  A    between atoms: _71  and  _73
REMARK   28  A    between atoms: _73  and  _74
REMARK   29  A    between atoms: _76  and  _78
REMARK   30  A    between atoms: _78  and  _79
REMARK   31  A    between atoms: _78  and  _81
REMARK   32  A    between atoms: _81  and  _82
REMARK   33  A    between atoms: _85  and  _87
REMARK   34  A    between atoms: _87  and  _88
REMARK   35  A    between atoms: _87  and  _90
REMARK   36  A    between atoms: _90  and  _91
REMARK   37  A    between atoms: _91  and  _92
REMARK   38  A    between atoms: _94  and  _96
REMARK   39  A    between atoms: _96  and  _97
REMARK   40  A    between atoms: _96  and  _99
REMARK   41  A    between atoms: _99  and  _100
REMARK   42  A    between atoms: _100  and  _101
REMARK   43  A    between atoms: _104  and  _106
REMARK   44  A    between atoms: _106  and  _107
REMARK   45  A    between atoms: _106  and  _109
REMARK   46  A    between atoms: _109  and  _110
REMARK   47  A    between atoms: _110  and  _111
REMARK   48  A    between atoms: _111  and  _112
REMARK   49  A    between atoms: _112  and  _113
REMARK   50  A    between atoms: _117  and  _119
REMARK   51  A    between atoms: _119  and  _120
REMARK   52  A    between atoms: _119  and  _122
REMARK   53  A    between atoms: _122  and  _123
REMARK   54  A    between atoms: _128  and  _129
REMARK   55  A    between atoms: _131  and  _133
REMARK   56  A    between atoms: _133  and  _134
REMARK   57  A    between atoms: _133  and  _136
REMARK   58  A    between atoms: _136  and  _137
REMARK   59  A    between atoms: _140  and  _142
REMARK   60  A    between atoms: _142  and  _143
REMARK   61  A    between atoms: _142  and  _145
REMARK   62  A    between atoms: _145  and  _146
REMARK   63  A    between atoms: _151  and  _153
REMARK   64  A    between atoms: _153  and  _154
REMARK   65  A    between atoms: _153  and  _156
REMARK   66  A    between atoms: _156  and  _157
REMARK   67  A    between atoms: _162  and  _164
REMARK   68  A    between atoms: _164  and  _165
REMARK   69  A    between atoms: _164  and  _167
REMARK   70  A    between atoms: _167  and  _168
REMARK   71  A    between atoms: _171  and  _173
REMARK   72  A    between atoms: _173  and  _174
REMARK   73  A    between atoms: _173  and  _176
REMARK   74  A    between atoms: _178  and  _180
REMARK   75  A    between atoms: _180  and  _181
REMARK   76  A    between atoms: _180  and  _183
REMARK   77  A    between atoms: _183  and  _184
REMARK   78  A    between atoms: _184  and  _185
REMARK   79  A    between atoms: _190  and  _192
REMARK   80  A    between atoms: _192  and  _193
REMARK   81  A    between atoms: _192  and  _195
REMARK   82  A    between atoms: _195  and  _196
REMARK   83  A    between atoms: _196  and  _197
REMARK   84  A    between atoms: _200  and  _202
REMARK   85  A    between atoms: _202  and  _203
REMARK   86  A    between atoms: _205  and  _207
REMARK   87  A    between atoms: _207  and  _208
REMARK   88  A    between atoms: _207  and  _210
REMARK   89  A    between atoms: _210  and  _211
REMARK   90  A    between atoms: _216  and  _218
REMARK   91  A    between atoms: _218  and  _219
REMARK   92  A    between atoms: _218  and  _221
REMARK   93  A    between atoms: _221  and  _222
REMARK   94  A    between atoms: _225  and  _227
REMARK   95  A    between atoms: _227  and  _228
REMARK   96  A    between atoms: _227  and  _230
REMARK   97  A    between atoms: _230  and  _231
REMARK   98  A    between atoms: _231  and  _232
REMARK   99  A    between atoms: _235  and  _237
REMARK  100  A    between atoms: _237  and  _238
REMARK  101  A    between atoms: _237  and  _240
REMARK  102  A    between atoms: _240  and  _241
REMARK  103  A    between atoms: _246  and  _247
REMARK  104  A    between atoms: _249  and  _251
REMARK  105  A    between atoms: _251  and  _252
REMARK  106  A    between atoms: _251  and  _254
REMARK  107  A    between atoms: _254  and  _255
REMARK  108  A    between atoms: _257  and  _259
REMARK  109  A    between atoms: _259  and  _260
REMARK  110  A    between atoms: _259  and  _262
REMARK  111  A    between atoms: _262  and  _263
REMARK  112  A    between atoms: _268  and  _270
REMARK  113  A    between atoms: _270  and  _271
REMARK  114  A    between atoms: _270  and  _273
REMARK  115  A    between atoms: _273  and  _274
REMARK  116  A    between atoms: _280  and  _282
REMARK  117  A    between atoms: _282  and  _283
REMARK  118  A    between atoms: _282  and  _285
REMARK  119  A    between atoms: _285  and  _286
REMARK  120  A    between atoms: _291  and  _293
REMARK  121  A    between atoms: _293  and  _294
REMARK  122  A    between atoms: _293  and  _296
REMARK  123  A    between atoms: _296  and  _297
REMARK  124  A    between atoms: _297  and  _298
REMARK  125  A    between atoms: _301  and  _303
REMARK  126  A    between atoms: _303  and  _304
REMARK  127  A    between atoms: _303  and  _306
REMARK  128  A    between atoms: _306  and  _307
REMARK  129  A    between atoms: _312  and  _313
REMARK  130  A    between atoms: _315  and  _317
REMARK  131  A    between atoms: _317  and  _318
REMARK  132  A    between atoms: _317  and  _320
REMARK  133  A    between atoms: _320  and  _321
REMARK  134  A    between atoms: _324  and  _326
REMARK  135  A    between atoms: _326  and  _327
REMARK  136  A    between atoms: _326  and  _329
REMARK  137  A    between atoms: _329  and  _330
REMARK  138  A    between atoms: _335  and  _336
REMARK  139  A    between atoms: _338  and  _340
REMARK  140  A    between atoms: _340  and  _341
REMARK  141  A    between atoms: _340  and  _343
REMARK  142  A    between atoms: _343  and  _344
REMARK  143  A    between atoms: _346  and  _348
REMARK  144  A    between atoms: _348  and  _349
REMARK  145  A    between atoms: _348  and  _351
REMARK  146  A    between atoms: _351  and  _352
REMARK  147  A    between atoms: _357  and  _358
REMARK  148  A    between atoms: _360  and  _362
REMARK  149  A    between atoms: _362  and  _363
REMARK  150  A    between atoms: _362  and  _365
REMARK  151  A    between atoms: _365  and  _366
REMARK  152  A    between atoms: _372  and  _374
REMARK  153  A    between atoms: _374  and  _375
REMARK  154  A    between atoms: _374  and  _377
REMARK  155  A    between atoms: _377  and  _378
REMARK  156  A    between atoms: _384  and  _386
REMARK  157  A    between atoms: _386  and  _387
REMARK  158  A    between atoms: _390  and  _392
REMARK  159  A    between atoms: _392  and  _393
REMARK  160  A    between atoms: _392  and  _395
REMARK  161  A    between atoms: _395  and  _396
REMARK  162  A    between atoms: _398  and  _400
REMARK  163  A    between atoms: _400  and  _401
REMARK  164  A    between atoms: _400  and  _403
REMARK  165  A    between atoms: _403  and  _404
REMARK  166  A    between atoms: _410  and  _412
REMARK  167  A    between atoms: _412  and  _413
REMARK  168  A    between atoms: _412  and  _415
REMARK  169  A    between atoms: _415  and  _416
REMARK  170  A    between atoms: _419  and  _421
REMARK  171  A    between atoms: _421  and  _422
REMARK  172  A    between atoms: _421  and  _424
REMARK  173  A    between atoms: _424  and  _425
REMARK  174  A    between atoms: _435  and  _437
REMARK  175  A    between atoms: _437  and  _438
REMARK  176  A    between atoms: _440  and  _442
REMARK  177  A    between atoms: _442  and  _443
REMARK  178  A    between atoms: _442  and  _445
REMARK  179  A    between atoms: _445  and  _446
REMARK  180  A    between atoms: _449  and  _451
REMARK  181  A    between atoms: _451  and  _452
REMARK  182  A    between atoms: _451  and  _454
REMARK  183  A    between atoms: _454  and  _455
REMARK  184  A    between atoms: _465  and  _467
REMARK  185  A    between atoms: _467  and  _468
REMARK  186  A    between atoms: _467  and  _470
REMARK  187  A    between atoms: _470  and  _471
REMARK  188  A    between atoms: _473  and  _475
REMARK  189  A    between atoms: _475  and  _476
REMARK  190  A    between atoms: _475  and  _478
REMARK  191  A    between atoms: _478  and  _479
REMARK  192  A    between atoms: _482  and  _484
REMARK  193  A    between atoms: _484  and  _485
REMARK  194  A    between atoms: _484  and  _487
REMARK  195  A    between atoms: _490  and  _492
REMARK  196  A    between atoms: _492  and  _493
REMARK  197  A    between atoms: _492  and  _495
REMARK  198  A    between atoms: _495  and  _496
REMARK  199  A    between atoms: _496  and  _497
REMARK  200  A    between atoms: _502  and  _504
REMARK  201  A    between atoms: _504  and  _505
REMARK  202  A    between atoms: _504  and  _507
REMARK  203  A    between atoms: _507  and  _508
REMARK  204  A    between atoms: _510  and  _512
REMARK  205  A    between atoms: _512  and  _513
REMARK  206  A    between atoms: _512  and  _515
REMARK  207  A    between atoms: _515  and  _516
REMARK  208  A    between atoms: _518  and  _520
REMARK  209  A    between atoms: _520  and  _521
REMARK  210  A    between atoms: _520  and  _523
REMARK  211  A    between atoms: _523  and  _524
REMARK  212  A    between atoms: _527  and  _529
REMARK  213  A    between atoms: _529  and  _530
REMARK  214  A    between atoms: _529  and  _532
REMARK  215  A    between atoms: _532  and  _533
REMARK  216  A    between atoms: _533  and  _534
REMARK  217  A    between atoms: _537  and  _539
REMARK  218  A    between atoms: _539  and  _540
REMARK  219  A    between atoms: _539  and  _542
REMARK  220  A    between atoms: _542  and  _543
REMARK  221  A    between atoms: _549  and  _551
REMARK  222  A    between atoms: _551  and  _552
REMARK  223  A    between atoms: _554  and  _556
REMARK  224  A    between atoms: _556  and  _557
REMARK  225  A    between atoms: _556  and  _559
REMARK  226  A    between atoms: _559  and  _560
REMARK  227  A    between atoms: _565  and  _566
REMARK  228  A    between atoms: _568  and  _570
REMARK  229  A    between atoms: _570  and  _571
REMARK  230  A    between atoms: _570  and  _573
REMARK  231  A    between atoms: _573  and  _574
REMARK  232  A    between atoms: _579  and  _580
REMARK  233  A    between atoms: _582  and  _584
REMARK  234  A    between atoms: _584  and  _585
REMARK  235  A    between atoms: _588  and  _590
REMARK  236  A    between atoms: _590  and  _591
REMARK  237  A    between atoms: _590  and  _593
REMARK  238  A    between atoms: _593  and  _594
REMARK  239  A    between atoms: _594  and  _595
REMARK  240  A    between atoms: _595  and  _596
REMARK                            x       y       z     vdW  Elec       q    Type
REMARK                         _______ _______ _______ _____ _____    ______ ____
ROOT
ATOM      1  CA  TYR A   2      23.878 -19.093   7.987  0.00  0.00    +0.153 C 
ENDROOT
BRANCH   1   3
ATOM      2  C   GLU A   1      24.543 -19.814   5.754  0.00  0.00    +0.238 C 
ATOM      3  N   TYR A   2      23.570 -19.494   6.606  0.00  0.00    -0.297 N 
ATOM      4  H   TYR A   2      22.580 -19.528   6.290  0.00  0.00    +0.150 HD
ATOM      5  O   GLU A   1      25.736 -19.799   6.072  0.00  0.00    -0.274 OA
BRANCH   2   6
ATOM      6  CA  GLU A   1      24.143 -20.257   4.341  0.00  0.00    +0.145 C 
BRANCH   6   7
ATOM      7  N   GLU A   1      22.756 -20.710   4.201  0.00  0.00    -0.238 NA
ATOM      8  H   GLU A   1      22.093 -20.201   3.583  0.00  0.00    +0.142 HD
ENDBRANCH   6   7
BRANCH   6   9
ATOM      9  CB  GLU A   1      24.516 -19.186   3.299  0.00  0.00    +0.038 C 
BRANCH   9  10
ATOM     10  CG  GLU A   1      23.573 -18.007   3.244  0.00  0.00    +0.116 C 
BRANCH  10  11
ATOM     11  CD  GLU A   1      22.502 -18.164   2.176  0.00  0.00    +0.365 C 
ATOM     12  OE2 GLU A   1      22.144 -19.309   1.820  0.00  0.00    -0.246 OA
ATOM     13  OE1 GLU A   1      22.029 -17.123   1.667  0.00  0.00    -0.246 OA
ENDBRANCH  10  11
ENDBRANCH   9  10
ENDBRANCH   6   9
ENDBRANCH   2   6
ENDBRANCH   1   3
BRANCH   1  14
ATOM     14  C   TYR A   2      23.631 -20.203   8.997  0.00  0.00    +0.241 C 
ATOM     15  O   TYR A   2      23.722 -19.963  10.201  0.00  0.00    -0.273 OA
ATOM     16  N   SER A   3      23.396 -21.417   8.489  0.00  0.00    -0.296 N 
ATOM     17  H   SER A   3      23.428 -21.544   7.457  0.00  0.00    +0.150 HD
BRANCH  16  18
ATOM     18  CA  SER A   3      23.095 -22.572   9.333  0.00  0.00    +0.166 C 
BRANCH  18  19
ATOM     19  CB  SER A   3      24.284 -22.996  10.183  0.00  0.00    +0.229 C 
ATOM     20  OG  SER A   3      25.450 -22.807   9.795  0.00  0.00    -0.286 OA
ENDBRANCH  18  19
BRANCH  18  21
ATOM     21  C   SER A   3      22.605 -23.743   8.480  0.00  0.00    +0.165 C 
BRANCH  21  22
ATOM     22  O   SER A   3      21.471 -23.354   7.727  0.00  0.00    -0.380 OA
ATOM     23  H   SER A   3      21.713 -22.598   7.135  0.00  0.00    +0.211 HD
ENDBRANCH  21  22
ENDBRANCH  18  21
ENDBRANCH  16  18
ENDBRANCH   1  14
BRANCH   1  24
ATOM     24  CB  TYR A   2      23.084 -17.846   8.381  0.00  0.00    +0.055 C 
BRANCH  24  25
ATOM     25  CG  TYR A   2      23.568 -16.639   7.621  0.00  0.00    -0.020 A 
ATOM     26  CD2 TYR A   2      24.498 -15.779   8.190  0.00  0.00    -0.001 A 
ATOM     27  CE2 TYR A   2      24.973 -14.674   7.496  0.00  0.00    +0.036 A 
ATOM     28  CZ  TYR A   2      24.532 -14.424   6.216  0.00  0.00    +0.134 A 
ATOM     29  CE1 TYR A   2      23.604 -15.274   5.605  0.00  0.00    +0.036 A 
ATOM     30  CD1 TYR A   2      23.129 -16.381   6.318  0.00  0.00    -0.001 A 
BRANCH  28  31
ATOM     31  OH  TYR A   2      25.028 -13.305   5.550  0.00  0.00    -0.506 OA
ATOM     32  HH  TYR A   2      24.798 -12.489   6.062  0.00  0.00    +0.292 HD
ENDBRANCH  28  31
ENDBRANCH  24  25
ENDBRANCH   1  24
TORSDOF 14
REMARK  Name = ../refined-set-2016/4cg8/4cg8_pocket.pdb
REMARK  240 active torsions:
REMARK  status: ('A' for Active; 'I' for Inactive)
REMARK    1  A    between atoms: _1  and  _3
REMARK    2  A    between atoms: _3  and  _4
REMARK    3  A    between atoms: _3  and  _6
REMARK    4  A    between atoms: _6  and  _7
REMARK    5  A    between atoms: _7  and  _8
REMARK    6  A    between atoms: _8  and  _9
REMARK    7  A    between atoms: _18  and  _20
REMARK    8  A    between atoms: _20  and  _21
REMARK    9  A    between atoms: _20  and  _23
REMARK   10  A    between atoms: _23  and  _24
REMARK   11  A    between atoms: _26  and  _28
REMARK   12  A    between atoms: _28  and  _29
REMARK   13  A    between atoms: _28  and  _31
REMARK   14  A    between atoms: _31  and  _32
REMARK   15  A    between atoms: _37  and  _39
REMARK   16  A    between atoms: _39  and  _40
REMARK   17  A    between atoms: _39  and  _42
REMARK   18  A    between atoms: _42  and  _43
REMARK   19  A    between atoms: _46  and  _48
REMARK   20  A    between atoms: _48  and  _49
REMARK   21  A    between atoms: _48  and  _51
REMARK   22  A    between atoms: _51  and  _52
REMARK   23  A    between atoms: _62  and  _64
REMARK   24  A    between atoms: _64  and  _65
REMARK   25  A    between atoms: _64  and  _67
REMARK   26  A    between atoms: _67  and  _68
REMARK   27  A    between atoms: _71  and  _73
REMARK   28  A    between atoms: _73  and  _74
REMARK   29  A    between atoms: _76  and  _78
REMARK   30  A    between atoms: _78  and  _79
REMARK   31  A    between atoms: _78  and  _81
REMARK   32  A    between atoms: _81  and  _82
REMARK   33  A    between atoms: _85  and  _87
REMARK   34  A    between atoms: _87  and  _88
REMARK   35  A    between atoms: _87  and  _90
REMARK   36  A    between atoms: _90  and  _91
REMARK   37  A    between atoms: _91  and  _92
REMARK   38  A    between atoms: _94  and  _96
REMARK   39  A    between atoms: _96  and  _97
REMARK   40  A    between atoms: _96  and  _99
REMARK   41  A    between atoms: _99  and  _100
REMARK   42  A    between atoms: _100  and  _101
REMARK   43  A    between atoms: _104  and  _106
REMARK   44  A    between atoms: _106  and  _107
REMARK   45  A    between atoms: _106  and  _109
REMARK   46  A    between atoms: _109  and  _110
REMARK   47  A    between atoms: _110  and  _111
REMARK   48  A    between atoms: _111  and  _112
REMARK   49  A    between atoms: _112  and  _113
REMARK   50  A    between atoms: _117  and  _119
REMARK   51  A    between atoms: _119  and  _120
REMARK   52  A    between atoms: _119  and  _122
REMARK   53  A    between atoms: _122  and  _123
REMARK   54  A    between atoms: _128  and  _129
REMARK   55  A    between atoms: _131  and  _133
REMARK   56  A    between atoms: _133  and  _134
REMARK   57  A    between atoms: _133  and  _136
REMARK   58  A    between atoms: _136  and  _137
REMARK   59  A    between atoms: _140  and  _142
REMARK   60  A    between atoms: _142  and  _143
REMARK   61  A    between atoms: _142  and  _145
REMARK   62  A    between atoms: _145  and  _146
REMARK   63  A    between atoms: _151  and  _153
REMARK   64  A    between atoms: _153  and  _154
REMARK   65  A    between atoms: _153  and  _156
REMARK   66  A    between atoms: _156  and  _157
REMARK   67  A    between atoms: _162  and  _164
REMARK   68  A    between atoms: _164  and  _165
REMARK   69  A    between atoms: _164  and  _167
REMARK   70  A    between atoms: _167  and  _168
REMARK   71  A    between atoms: _171  and  _173
REMARK   72  A    between atoms: _173  and  _174
REMARK   73  A    between atoms: _173  and  _176
REMARK   74  A    between atoms: _178  and  _180
REMARK   75  A    between atoms: _180  and  _181
REMARK   76  A    between atoms: _180  and  _183
REMARK   77  A    between atoms: _183  and  _184
REMARK   78  A    between atoms: _184  and  _185
REMARK   79  A    between atoms: _190  and  _192
REMARK   80  A    between atoms: _192  and  _193
REMARK   81  A    between atoms: _192  and  _195
REMARK   82  A    between atoms: _195  and  _196
REMARK   83  A    between atoms: _196  and  _197
REMARK   84  A    between atoms: _200  and  _202
REMARK   85  A    between atoms: _202  and  _203
REMARK   86  A    between atoms: _205  and  _207
REMARK   87  A    between atoms: _207  and  _208
REMARK   88  A    between atoms: _207  and  _210
REMARK   89  A    between atoms: _210  and  _211
REMARK   90  A    between atoms: _216  and  _218
REMARK   91  A    between atoms: _218  and  _219
REMARK   92  A    between atoms: _218  and  _221
REMARK   93  A    between atoms: _221  and  _222
REMARK   94  A    between atoms: _225  and  _227
REMARK   95  A    between atoms: _227  and  _228
REMARK   96  A    between atoms: _227  and  _230
REMARK   97  A    between atoms: _230  and  _231
REMARK   98  A    between atoms: _231  and  _232
REMARK   99  A    between atoms: _235  and  _237
REMARK  100  A    between atoms: _237  and  _238
REMARK  101  A    between atoms: _237  and  _240
REMARK  102  A    between atoms: _240  and  _241
REMARK  103  A    between atoms: _246  and  _247
REMARK  104  A    between atoms: _249  and  _251
REMARK  105  A    between atoms: _251  and  _252
REMARK  106  A    between atoms: _251  and  _254
REMARK  107  A    between atoms: _254  and  _255
REMARK  108  A    between atoms: _257  and  _259
REMARK  109  A    between atoms: _259  and  _260
REMARK  110  A    between atoms: _259  and  _262
REMARK  111  A    between atoms: _262  and  _263
REMARK  112  A    between atoms: _268  and  _270
REMARK  113  A    between atoms: _270  and  _271
REMARK  114  A    between atoms: _270  and  _273
REMARK  115  A    between atoms: _273  and  _274
REMARK  116  A    between atoms: _280  and  _282
REMARK  117  A    between atoms: _282  and  _283
REMARK  118  A    between atoms: _282  and  _285
REMARK  119  A    between atoms: _285  and  _286
REMARK  120  A    between atoms: _291  and  _293
REMARK  121  A    between atoms: _293  and  _294
REMARK  122  A    between atoms: _293  and  _296
REMARK  123  A    between atoms: _296  and  _297
REMARK  124  A    between atoms: _297  and  _298
REMARK  125  A    between atoms: _301  and  _303
REMARK  126  A    between atoms: _303  and  _304
REMARK  127  A    between atoms: _303  and  _306
REMARK  128  A    between atoms: _306  and  _307
REMARK  129  A    between atoms: _312  and  _313
REMARK  130  A    between atoms: _315  and  _317
REMARK  131  A    between atoms: _317  and  _318
REMARK  132  A    between atoms: _317  and  _320
REMARK  133  A    between atoms: _320  and  _321
REMARK  134  A    between atoms: _324  and  _326
REMARK  135  A    between atoms: _326  and  _327
REMARK  136  A    between atoms: _326  and  _329
REMARK  137  A    between atoms: _329  and  _330
REMARK  138  A    between atoms: _335  and  _336
REMARK  139  A    between atoms: _338  and  _340
REMARK  140  A    between atoms: _340  and  _341
REMARK  141  A    between atoms: _340  and  _343
REMARK  142  A    between atoms: _343  and  _344
REMARK  143  A    between atoms: _346  and  _348
REMARK  144  A    between atoms: _348  and  _349
REMARK  145  A    between atoms: _348  and  _351
REMARK  146  A    between atoms: _351  and  _352
REMARK  147  A    between atoms: _357  and  _358
REMARK  148  A    between atoms: _360  and  _362
REMARK  149  A    between atoms: _362  and  _363
REMARK  150  A    between atoms: _362  and  _365
REMARK  151  A    between atoms: _365  and  _366
REMARK  152  A    between atoms: _372  and  _374
REMARK  153  A    between atoms: _374  and  _375
REMARK  154  A    between atoms: _374  and  _377
REMARK  155  A    between atoms: _377  and  _378
REMARK  156  A    between atoms: _384  and  _386
REMARK  157  A    between atoms: _386  and  _387
REMARK  158  A    between atoms: _390  and  _392
REMARK  159  A    between atoms: _392  and  _393
REMARK  160  A    between atoms: _392  and  _395
REMARK  161  A    between atoms: _395  and  _396
REMARK  162  A    between atoms: _398  and  _400
REMARK  163  A    between atoms: _400  and  _401
REMARK  164  A    between atoms: _400  and  _403
REMARK  165  A    between atoms: _403  and  _404
REMARK  166  A    between atoms: _410  and  _412
REMARK  167  A    between atoms: _412  and  _413
REMARK  168  A    between atoms: _412  and  _415
REMARK  169  A    between atoms: _415  and  _416
REMARK  170  A    between atoms: _419  and  _421
REMARK  171  A    between atoms: _421  and  _422
REMARK  172  A    between atoms: _421  and  _424
REMARK  173  A    between atoms: _424  and  _425
REMARK  174  A    between atoms: _435  and  _437
REMARK  175  A    between atoms: _437  and  _438
REMARK  176  A    between atoms: _440  and  _442
REMARK  177  A    between atoms: _442  and  _443
REMARK  178  A    between atoms: _442  and  _445
REMARK  179  A    between atoms: _445  and  _446
REMARK  180  A    between atoms: _449  and  _451
REMARK  181  A    between atoms: _451  and  _452
REMARK  182  A    between atoms: _451  and  _454
REMARK  183  A    between atoms: _454  and  _455
REMARK  184  A    between atoms: _465  and  _467
REMARK  185  A    between atoms: _467  and  _468
REMARK  186  A    between atoms: _467  and  _470
REMARK  187  A    between atoms: _470  and  _471
REMARK  188  A    between atoms: _473  and  _475
REMARK  189  A    between atoms: _475  and  _476
REMARK  190  A    between atoms: _475  and  _478
REMARK  191  A    between atoms: _478  and  _479
REMARK  192  A    between atoms: _482  and  _484
REMARK  193  A    between atoms: _484  and  _485
REMARK  194  A    between atoms: _484  and  _487
REMARK  195  A    between atoms: _490  and  _492
REMARK  196  A    between atoms: _492  and  _493
REMARK  197  A    between atoms: _492  and  _495
REMARK  198  A    between atoms: _495  and  _496
REMARK  199  A    between atoms: _496  and  _497
REMARK  200  A    between atoms: _502  and  _504
REMARK  201  A    between atoms: _504  and  _505
REMARK  202  A    between atoms: _504  and  _507
REMARK  203  A    between atoms: _507  and  _508
REMARK  204  A    between atoms: _510  and  _512
REMARK  205  A    between atoms: _512  and  _513
REMARK  206  A    between atoms: _512  and  _515
REMARK  207  A    between atoms: _515  and  _516
REMARK  208  A    between atoms: _518  and  _520
REMARK  209  A    between atoms: _520  and  _521
REMARK  210  A    between atoms: _520  and  _523
REMARK  211  A    between atoms: _523  and  _524
REMARK  212  A    between atoms: _527  and  _529
REMARK  213  A    between atoms: _529  and  _530
REMARK  214  A    between atoms: _529  and  _532
REMARK  215  A    between atoms: _532  and  _533
REMARK  216  A    between atoms: _533  and  _534
REMARK  217  A    between atoms: _537  and  _539
REMARK  218  A    between atoms: _539  and  _540
REMARK  219  A    between atoms: _539  and  _542
REMARK  220  A    between atoms: _542  and  _543
REMARK  221  A    between atoms: _549  and  _551
REMARK  222  A    between atoms: _551  and  _552
REMARK  223  A    between atoms: _554  and  _556
REMARK  224  A    between atoms: _556  and  _557
REMARK  225  A    between atoms: _556  and  _559
REMARK  226  A    between atoms: _559  and  _560
REMARK  227  A    between atoms: _565  and  _566
REMARK  228  A    between atoms: _568  and  _570
REMARK  229  A    between atoms: _570  and  _571
REMARK  230  A    between atoms: _570  and  _573
REMARK  231  A    between atoms: _573  and  _574
REMARK  232  A    between atoms: _579  and  _580
REMARK  233  A    between atoms: _582  and  _584
REMARK  234  A    between atoms: _584  and  _585
REMARK  235  A    between atoms: _588  and  _590
REMARK  236  A    between atoms: _590  and  _591
REMARK  237  A    between atoms: _590  and  _593
REMARK  238  A    between atoms: _593  and  _594
REMARK  239  A    between atoms: _594  and  _595
REMARK  240  A    between atoms: _595  and  _596
REMARK                            x       y       z     vdW  Elec       q    Type
REMARK                         _______ _______ _______ _____ _____    ______ ____
ROOT
ATOM      1  CB  ASN A   1      22.252 -22.734  16.798  0.00  0.00    +0.110 C 
ENDROOT
BRANCH   1   2
ATOM      2  CG  ASN A   1      21.947 -21.401  17.500  0.00  0.00    +0.221 C 
ATOM      3  OD1 ASN A   1      22.267 -21.197  18.665  0.00  0.00    -0.275 OA
ATOM      4  ND2 ASN A   1      21.332 -20.482  16.760  0.00  0.00    -0.329 N 
ATOM      5 HD21 ASN A   1      21.107 -19.552  17.167  0.00  0.00    +0.145 HD
ATOM      6 HD22 ASN A   1      21.077 -20.694  15.774  0.00  0.00    +0.145 HD
ENDBRANCH   1   2
BRANCH   1   7
ATOM      7  CA  ASN A   1      22.690 -23.857  17.760  0.00  0.00    +0.142 C 
BRANCH   7   8
ATOM      8  N   ASN A   1      23.159 -24.988  16.968  0.00  0.00    -0.239 NA
ATOM      9  H   ASN A   1      22.553 -25.831  16.901  0.00  0.00    +0.142 HD
ENDBRANCH   7   8
BRANCH   7  10
ATOM     10  C   ASN A   1      21.538 -24.364  18.622  0.00  0.00    +0.225 C 
ATOM     11  O   ASN A   1      21.028 -25.483  18.426  0.00  0.00    -0.287 OA
ENDBRANCH   7  10
ENDBRANCH   1   7
TORSDOF 4
REMARK  Name = ../refined-set-2016/4cg8/4cg8_pocket.pdb
REMARK  240 active torsions:
REMARK  status: ('A' for Active; 'I' for Inactive)
REMARK    1  A    between atoms: _1  and  _3
REMARK    2  A    between atoms: _3  and  _4
REMARK    3  A    between atoms: _3  and  _6
REMARK    4  A    between atoms: _6  and  _7
REMARK    5  A    between atoms: _7  and  _8
REMARK    6  A    between atoms: _8  and  _9
REMARK    7  A    between atoms: _18  and  _20
REMARK    8  A    between atoms: _20  and  _21
REMARK    9  A    between atoms: _20  and  _23
REMARK   10  A    between atoms: _23  and  _24
REMARK   11  A    between atoms: _26  and  _28
REMARK   12  A    between atoms: _28  and  _29
REMARK   13  A    between atoms: _28  and  _31
REMARK   14  A    between atoms: _31  and  _32
REMARK   15  A    between atoms: _37  and  _39
REMARK   16  A    between atoms: _39  and  _40
REMARK   17  A    between atoms: _39  and  _42
REMARK   18  A    between atoms: _42  and  _43
REMARK   19  A    between atoms: _46  and  _48
REMARK   20  A    between atoms: _48  and  _49
REMARK   21  A    between atoms: _48  and  _51
REMARK   22  A    between atoms: _51  and  _52
REMARK   23  A    between atoms: _62  and  _64
REMARK   24  A    between atoms: _64  and  _65
REMARK   25  A    between atoms: _64  and  _67
REMARK   26  A    between atoms: _67  and  _68
REMARK   27  A    between atoms: _71  and  _73
REMARK   28  A    between atoms: _73  and  _74
REMARK   29  A    between atoms: _76  and  _78
REMARK   30  A    between atoms: _78  and  _79
REMARK   31  A    between atoms: _78  and  _81
REMARK   32  A    between atoms: _81  and  _82
REMARK   33  A    between atoms: _85  and  _87
REMARK   34  A    between atoms: _87  and  _88
REMARK   35  A    between atoms: _87  and  _90
REMARK   36  A    between atoms: _90  and  _91
REMARK   37  A    between atoms: _91  and  _92
REMARK   38  A    between atoms: _94  and  _96
REMARK   39  A    between atoms: _96  and  _97
REMARK   40  A    between atoms: _96  and  _99
REMARK   41  A    between atoms: _99  and  _100
REMARK   42  A    between atoms: _100  and  _101
REMARK   43  A    between atoms: _104  and  _106
REMARK   44  A    between atoms: _106  and  _107
REMARK   45  A    between atoms: _106  and  _109
REMARK   46  A    between atoms: _109  and  _110
REMARK   47  A    between atoms: _110  and  _111
REMARK   48  A    between atoms: _111  and  _112
REMARK   49  A    between atoms: _112  and  _113
REMARK   50  A    between atoms: _117  and  _119
REMARK   51  A    between atoms: _119  and  _120
REMARK   52  A    between atoms: _119  and  _122
REMARK   53  A    between atoms: _122  and  _123
REMARK   54  A    between atoms: _128  and  _129
REMARK   55  A    between atoms: _131  and  _133
REMARK   56  A    between atoms: _133  and  _134
REMARK   57  A    between atoms: _133  and  _136
REMARK   58  A    between atoms: _136  and  _137
REMARK   59  A    between atoms: _140  and  _142
REMARK   60  A    between atoms: _142  and  _143
REMARK   61  A    between atoms: _142  and  _145
REMARK   62  A    between atoms: _145  and  _146
REMARK   63  A    between atoms: _151  and  _153
REMARK   64  A    between atoms: _153  and  _154
REMARK   65  A    between atoms: _153  and  _156
REMARK   66  A    between atoms: _156  and  _157
REMARK   67  A    between atoms: _162  and  _164
REMARK   68  A    between atoms: _164  and  _165
REMARK   69  A    between atoms: _164  and  _167
REMARK   70  A    between atoms: _167  and  _168
REMARK   71  A    between atoms: _171  and  _173
REMARK   72  A    between atoms: _173  and  _174
REMARK   73  A    between atoms: _173  and  _176
REMARK   74  A    between atoms: _178  and  _180
REMARK   75  A    between atoms: _180  and  _181
REMARK   76  A    between atoms: _180  and  _183
REMARK   77  A    between atoms: _183  and  _184
REMARK   78  A    between atoms: _184  and  _185
REMARK   79  A    between atoms: _190  and  _192
REMARK   80  A    between atoms: _192  and  _193
REMARK   81  A    between atoms: _192  and  _195
REMARK   82  A    between atoms: _195  and  _196
REMARK   83  A    between atoms: _196  and  _197
REMARK   84  A    between atoms: _200  and  _202
REMARK   85  A    between atoms: _202  and  _203
REMARK   86  A    between atoms: _205  and  _207
REMARK   87  A    between atoms: _207  and  _208
REMARK   88  A    between atoms: _207  and  _210
REMARK   89  A    between atoms: _210  and  _211
REMARK   90  A    between atoms: _216  and  _218
REMARK   91  A    between atoms: _218  and  _219
REMARK   92  A    between atoms: _218  and  _221
REMARK   93  A    between atoms: _221  and  _222
REMARK   94  A    between atoms: _225  and  _227
REMARK   95  A    between atoms: _227  and  _228
REMARK   96  A    between atoms: _227  and  _230
REMARK   97  A    between atoms: _230  and  _231
REMARK   98  A    between atoms: _231  and  _232
REMARK   99  A    between atoms: _235  and  _237
REMARK  100  A    between atoms: _237  and  _238
REMARK  101  A    between atoms: _237  and  _240
REMARK  102  A    between atoms: _240  and  _241
REMARK  103  A    between atoms: _246  and  _247
REMARK  104  A    between atoms: _249  and  _251
REMARK  105  A    between atoms: _251  and  _252
REMARK  106  A    between atoms: _251  and  _254
REMARK  107  A    between atoms: _254  and  _255
REMARK  108  A    between atoms: _257  and  _259
REMARK  109  A    between atoms: _259  and  _260
REMARK  110  A    between atoms: _259  and  _262
REMARK  111  A    between atoms: _262  and  _263
REMARK  112  A    between atoms: _268  and  _270
REMARK  113  A    between atoms: _270  and  _271
REMARK  114  A    between atoms: _270  and  _273
REMARK  115  A    between atoms: _273  and  _274
REMARK  116  A    between atoms: _280  and  _282
REMARK  117  A    between atoms: _282  and  _283
REMARK  118  A    between atoms: _282  and  _285
REMARK  119  A    between atoms: _285  and  _286
REMARK  120  A    between atoms: _291  and  _293
REMARK  121  A    between atoms: _293  and  _294
REMARK  122  A    between atoms: _293  and  _296
REMARK  123  A    between atoms: _296  and  _297
REMARK  124  A    between atoms: _297  and  _298
REMARK  125  A    between atoms: _301  and  _303
REMARK  126  A    between atoms: _303  and  _304
REMARK  127  A    between atoms: _303  and  _306
REMARK  128  A    between atoms: _306  and  _307
REMARK  129  A    between atoms: _312  and  _313
REMARK  130  A    between atoms: _315  and  _317
REMARK  131  A    between atoms: _317  and  _318
REMARK  132  A    between atoms: _317  and  _320
REMARK  133  A    between atoms: _320  and  _321
REMARK  134  A    between atoms: _324  and  _326
REMARK  135  A    between atoms: _326  and  _327
REMARK  136  A    between atoms: _326  and  _329
REMARK  137  A    between atoms: _329  and  _330
REMARK  138  A    between atoms: _335  and  _336
REMARK  139  A    between atoms: _338  and  _340
REMARK  140  A    between atoms: _340  and  _341
REMARK  141  A    between atoms: _340  and  _343
REMARK  142  A    between atoms: _343  and  _344
REMARK  143  A    between atoms: _346  and  _348
REMARK  144  A    between atoms: _348  and  _349
REMARK  145  A    between atoms: _348  and  _351
REMARK  146  A    between atoms: _351  and  _352
REMARK  147  A    between atoms: _357  and  _358
REMARK  148  A    between atoms: _360  and  _362
REMARK  149  A    between atoms: _362  and  _363
REMARK  150  A    between atoms: _362  and  _365
REMARK  151  A    between atoms: _365  and  _366
REMARK  152  A    between atoms: _372  and  _374
REMARK  153  A    between atoms: _374  and  _375
REMARK  154  A    between atoms: _374  and  _377
REMARK  155  A    between atoms: _377  and  _378
REMARK  156  A    between atoms: _384  and  _386
REMARK  157  A    between atoms: _386  and  _387
REMARK  158  A    between atoms: _390  and  _392
REMARK  159  A    between atoms: _392  and  _393
REMARK  160  A    between atoms: _392  and  _395
REMARK  161  A    between atoms: _395  and  _396
REMARK  162  A    between atoms: _398  and  _400
REMARK  163  A    between atoms: _400  and  _401
REMARK  164  A    between atoms: _400  and  _403
REMARK  165  A    between atoms: _403  and  _404
REMARK  166  A    between atoms: _410  and  _412
REMARK  167  A    between atoms: _412  and  _413
REMARK  168  A    between atoms: _412  and  _415
REMARK  169  A    between atoms: _415  and  _416
REMARK  170  A    between atoms: _419  and  _421
REMARK  171  A    between atoms: _421  and  _422
REMARK  172  A    between atoms: _421  and  _424
REMARK  173  A    between atoms: _424  and  _425
REMARK  174  A    between atoms: _435  and  _437
REMARK  175  A    between atoms: _437  and  _438
REMARK  176  A    between atoms: _440  and  _442
REMARK  177  A    between atoms: _442  and  _443
REMARK  178  A    between atoms: _442  and  _445
REMARK  179  A    between atoms: _445  and  _446
REMARK  180  A    between atoms: _449  and  _451
REMARK  181  A    between atoms: _451  and  _452
REMARK  182  A    between atoms: _451  and  _454
REMARK  183  A    between atoms: _454  and  _455
REMARK  184  A    between atoms: _465  and  _467
REMARK  185  A    between atoms: _467  and  _468
REMARK  186  A    between atoms: _467  and  _470
REMARK  187  A    between atoms: _470  and  _471
REMARK  188  A    between atoms: _473  and  _475
REMARK  189  A    between atoms: _475  and  _476
REMARK  190  A    between atoms: _475  and  _478
REMARK  191  A    between atoms: _478  and  _479
REMARK  192  A    between atoms: _482  and  _484
REMARK  193  A    between atoms: _484  and  _485
REMARK  194  A    between atoms: _484  and  _487
REMARK  195  A    between atoms: _490  and  _492
REMARK  196  A    between atoms: _492  and  _493
REMARK  197  A    between atoms: _492  and  _495
REMARK  198  A    between atoms: _495  and  _496
REMARK  199  A    between atoms: _496  and  _497
REMARK  200  A    between atoms: _502  and  _504
REMARK  201  A    between atoms: _504  and  _505
REMARK  202  A    between atoms: _504  and  _507
REMARK  203  A    between atoms: _507  and  _508
REMARK  204  A    between atoms: _510  and  _512
REMARK  205  A    between atoms: _512  and  _513
REMARK  206  A    between atoms: _512  and  _515
REMARK  207  A    between atoms: _515  and  _516
REMARK  208  A    between atoms: _518  and  _520
REMARK  209  A    between atoms: _520  and  _521
REMARK  210  A    between atoms: _520  and  _523
REMARK  211  A    between atoms: _523  and  _524
REMARK  212  A    between atoms: _527  and  _529
REMARK  213  A    between atoms: _529  and  _530
REMARK  214  A    between atoms: _529  and  _532
REMARK  215  A    between atoms: _532  and  _533
REMARK  216  A    between atoms: _533  and  _534
REMARK  217  A    between atoms: _537  and  _539
REMARK  218  A    between atoms: _539  and  _540
REMARK  219  A    between atoms: _539  and  _542
REMARK  220  A    between atoms: _542  and  _543
REMARK  221  A    between atoms: _549  and  _551
REMARK  222  A    between atoms: _551  and  _552
REMARK  223  A    between atoms: _554  and  _556
REMARK  224  A    between atoms: _556  and  _557
REMARK  225  A    between atoms: _556  and  _559
REMARK  226  A    between atoms: _559  and  _560
REMARK  227  A    between atoms: _565  and  _566
REMARK  228  A    between atoms: _568  and  _570
REMARK  229  A    between atoms: _570  and  _571
REMARK  230  A    between atoms: _570  and  _573
REMARK  231  A    between atoms: _573  and  _574
REMARK  232  A    between atoms: _579  and  _580
REMARK  233  A    between atoms: _582  and  _584
REMARK  234  A    between atoms: _584  and  _585
REMARK  235  A    between atoms: _588  and  _590
REMARK  236  A    between atoms: _590  and  _591
REMARK  237  A    between atoms: _590  and  _593
REMARK  238  A    between atoms: _593  and  _594
REMARK  239  A    between atoms: _594  and  _595
REMARK  240  A    between atoms: _595  and  _596
REMARK                            x       y       z     vdW  Elec       q    Type
REMARK                         _______ _______ _______ _____ _____    ______ ____
ROOT
ATOM      1  CB  PHE A   1      18.279 -19.560  18.580  0.00  0.00    +0.051 C 
ENDROOT
BRANCH   1   2
ATOM      2  CG  PHE A   1      18.593 -18.369  17.703  0.00  0.00    -0.020 A 
ATOM      3  CD2 PHE A   1      18.732 -17.095  18.254  0.00  0.00    -0.004 A 
ATOM      4  CE2 PHE A   1      18.990 -16.001  17.419  0.00  0.00    -0.000 A 
ATOM      5  CZ  PHE A   1      19.089 -16.176  16.049  0.00  0.00    -0.000 A 
ATOM      6  CE1 PHE A   1      18.948 -17.441  15.489  0.00  0.00    -0.000 A 
ATOM      7  CD1 PHE A   1      18.702 -18.521  16.316  0.00  0.00    -0.004 A 
ENDBRANCH   1   2
BRANCH   1   8
ATOM      8  CA  PHE A   1      16.770 -19.765  18.779  0.00  0.00    +0.137 C 
BRANCH   8   9
ATOM      9  N   PHE A   1      16.452 -20.878  19.680  0.00  0.00    -0.239 NA
ATOM     10  H   PHE A   1      17.208 -21.509  20.015  0.00  0.00    +0.142 HD
ENDBRANCH   8   9
BRANCH   8  11
ATOM     11  C   PHE A   1      16.082 -19.897  17.427  0.00  0.00    +0.224 C 
ATOM     12  O   PHE A   1      15.488 -18.937  16.944  0.00  0.00    -0.287 OA
ENDBRANCH   8  11
ENDBRANCH   1   8
TORSDOF 4
REMARK  Name = ../refined-set-2016/4cg8/4cg8_pocket.pdb
REMARK  240 active torsions:
REMARK  status: ('A' for Active; 'I' for Inactive)
REMARK    1  A    between atoms: _1  and  _3
REMARK    2  A    between atoms: _3  and  _4
REMARK    3  A    between atoms: _3  and  _6
REMARK    4  A    between atoms: _6  and  _7
REMARK    5  A    between atoms: _7  and  _8
REMARK    6  A    between atoms: _8  and  _9
REMARK    7  A    between atoms: _18  and  _20
REMARK    8  A    between atoms: _20  and  _21
REMARK    9  A    between atoms: _20  and  _23
REMARK   10  A    between atoms: _23  and  _24
REMARK   11  A    between atoms: _26  and  _28
REMARK   12  A    between atoms: _28  and  _29
REMARK   13  A    between atoms: _28  and  _31
REMARK   14  A    between atoms: _31  and  _32
REMARK   15  A    between atoms: _37  and  _39
REMARK   16  A    between atoms: _39  and  _40
REMARK   17  A    between atoms: _39  and  _42
REMARK   18  A    between atoms: _42  and  _43
REMARK   19  A    between atoms: _46  and  _48
REMARK   20  A    between atoms: _48  and  _49
REMARK   21  A    between atoms: _48  and  _51
REMARK   22  A    between atoms: _51  and  _52
REMARK   23  A    between atoms: _62  and  _64
REMARK   24  A    between atoms: _64  and  _65
REMARK   25  A    between atoms: _64  and  _67
REMARK   26  A    between atoms: _67  and  _68
REMARK   27  A    between atoms: _71  and  _73
REMARK   28  A    between atoms: _73  and  _74
REMARK   29  A    between atoms: _76  and  _78
REMARK   30  A    between atoms: _78  and  _79
REMARK   31  A    between atoms: _78  and  _81
REMARK   32  A    between atoms: _81  and  _82
REMARK   33  A    between atoms: _85  and  _87
REMARK   34  A    between atoms: _87  and  _88
REMARK   35  A    between atoms: _87  and  _90
REMARK   36  A    between atoms: _90  and  _91
REMARK   37  A    between atoms: _91  and  _92
REMARK   38  A    between atoms: _94  and  _96
REMARK   39  A    between atoms: _96  and  _97
REMARK   40  A    between atoms: _96  and  _99
REMARK   41  A    between atoms: _99  and  _100
REMARK   42  A    between atoms: _100  and  _101
REMARK   43  A    between atoms: _104  and  _106
REMARK   44  A    between atoms: _106  and  _107
REMARK   45  A    between atoms: _106  and  _109
REMARK   46  A    between atoms: _109  and  _110
REMARK   47  A    between atoms: _110  and  _111
REMARK   48  A    between atoms: _111  and  _112
REMARK   49  A    between atoms: _112  and  _113
REMARK   50  A    between atoms: _117  and  _119
REMARK   51  A    between atoms: _119  and  _120
REMARK   52  A    between atoms: _119  and  _122
REMARK   53  A    between atoms: _122  and  _123
REMARK   54  A    between atoms: _128  and  _129
REMARK   55  A    between atoms: _131  and  _133
REMARK   56  A    between atoms: _133  and  _134
REMARK   57  A    between atoms: _133  and  _136
REMARK   58  A    between atoms: _136  and  _137
REMARK   59  A    between atoms: _140  and  _142
REMARK   60  A    between atoms: _142  and  _143
REMARK   61  A    between atoms: _142  and  _145
REMARK   62  A    between atoms: _145  and  _146
REMARK   63  A    between atoms: _151  and  _153
REMARK   64  A    between atoms: _153  and  _154
REMARK   65  A    between atoms: _153  and  _156
REMARK   66  A    between atoms: _156  and  _157
REMARK   67  A    between atoms: _162  and  _164
REMARK   68  A    between atoms: _164  and  _165
REMARK   69  A    between atoms: _164  and  _167
REMARK   70  A    between atoms: _167  and  _168
REMARK   71  A    between atoms: _171  and  _173
REMARK   72  A    between atoms: _173  and  _174
REMARK   73  A    between atoms: _173  and  _176
REMARK   74  A    between atoms: _178  and  _180
REMARK   75  A    between atoms: _180  and  _181
REMARK   76  A    between atoms: _180  and  _183
REMARK   77  A    between atoms: _183  and  _184
REMARK   78  A    between atoms: _184  and  _185
REMARK   79  A    between atoms: _190  and  _192
REMARK   80  A    between atoms: _192  and  _193
REMARK   81  A    between atoms: _192  and  _195
REMARK   82  A    between atoms: _195  and  _196
REMARK   83  A    between atoms: _196  and  _197
REMARK   84  A    between atoms: _200  and  _202
REMARK   85  A    between atoms: _202  and  _203
REMARK   86  A    between atoms: _205  and  _207
REMARK   87  A    between atoms: _207  and  _208
REMARK   88  A    between atoms: _207  and  _210
REMARK   89  A    between atoms: _210  and  _211
REMARK   90  A    between atoms: _216  and  _218
REMARK   91  A    between atoms: _218  and  _219
REMARK   92  A    between atoms: _218  and  _221
REMARK   93  A    between atoms: _221  and  _222
REMARK   94  A    between atoms: _225  and  _227
REMARK   95  A    between atoms: _227  and  _228
REMARK   96  A    between atoms: _227  and  _230
REMARK   97  A    between atoms: _230  and  _231
REMARK   98  A    between atoms: _231  and  _232
REMARK   99  A    between atoms: _235  and  _237
REMARK  100  A    between atoms: _237  and  _238
REMARK  101  A    between atoms: _237  and  _240
REMARK  102  A    between atoms: _240  and  _241
REMARK  103  A    between atoms: _246  and  _247
REMARK  104  A    between atoms: _249  and  _251
REMARK  105  A    between atoms: _251  and  _252
REMARK  106  A    between atoms: _251  and  _254
REMARK  107  A    between atoms: _254  and  _255
REMARK  108  A    between atoms: _257  and  _259
REMARK  109  A    between atoms: _259  and  _260
REMARK  110  A    between atoms: _259  and  _262
REMARK  111  A    between atoms: _262  and  _263
REMARK  112  A    between atoms: _268  and  _270
REMARK  113  A    between atoms: _270  and  _271
REMARK  114  A    between atoms: _270  and  _273
REMARK  115  A    between atoms: _273  and  _274
REMARK  116  A    between atoms: _280  and  _282
REMARK  117  A    between atoms: _282  and  _283
REMARK  118  A    between atoms: _282  and  _285
REMARK  119  A    between atoms: _285  and  _286
REMARK  120  A    between atoms: _291  and  _293
REMARK  121  A    between atoms: _293  and  _294
REMARK  122  A    between atoms: _293  and  _296
REMARK  123  A    between atoms: _296  and  _297
REMARK  124  A    between atoms: _297  and  _298
REMARK  125  A    between atoms: _301  and  _303
REMARK  126  A    between atoms: _303  and  _304
REMARK  127  A    between atoms: _303  and  _306
REMARK  128  A    between atoms: _306  and  _307
REMARK  129  A    between atoms: _312  and  _313
REMARK  130  A    between atoms: _315  and  _317
REMARK  131  A    between atoms: _317  and  _318
REMARK  132  A    between atoms: _317  and  _320
REMARK  133  A    between atoms: _320  and  _321
REMARK  134  A    between atoms: _324  and  _326
REMARK  135  A    between atoms: _326  and  _327
REMARK  136  A    between atoms: _326  and  _329
REMARK  137  A    between atoms: _329  and  _330
REMARK  138  A    between atoms: _335  and  _336
REMARK  139  A    between atoms: _338  and  _340
REMARK  140  A    between atoms: _340  and  _341
REMARK  141  A    between atoms: _340  and  _343
REMARK  142  A    between atoms: _343  and  _344
REMARK  143  A    between atoms: _346  and  _348
REMARK  144  A    between atoms: _348  and  _349
REMARK  145  A    between atoms: _348  and  _351
REMARK  146  A    between atoms: _351  and  _352
REMARK  147  A    between atoms: _357  and  _358
REMARK  148  A    between atoms: _360  and  _362
REMARK  149  A    between atoms: _362  and  _363
REMARK  150  A    between atoms: _362  and  _365
REMARK  151  A    between atoms: _365  and  _366
REMARK  152  A    between atoms: _372  and  _374
REMARK  153  A    between atoms: _374  and  _375
REMARK  154  A    between atoms: _374  and  _377
REMARK  155  A    between atoms: _377  and  _378
REMARK  156  A    between atoms: _384  and  _386
REMARK  157  A    between atoms: _386  and  _387
REMARK  158  A    between atoms: _390  and  _392
REMARK  159  A    between atoms: _392  and  _393
REMARK  160  A    between atoms: _392  and  _395
REMARK  161  A    between atoms: _395  and  _396
REMARK  162  A    between atoms: _398  and  _400
REMARK  163  A    between atoms: _400  and  _401
REMARK  164  A    between atoms: _400  and  _403
REMARK  165  A    between atoms: _403  and  _404
REMARK  166  A    between atoms: _410  and  _412
REMARK  167  A    between atoms: _412  and  _413
REMARK  168  A    between atoms: _412  and  _415
REMARK  169  A    between atoms: _415  and  _416
REMARK  170  A    between atoms: _419  and  _421
REMARK  171  A    between atoms: _421  and  _422
REMARK  172  A    between atoms: _421  and  _424
REMARK  173  A    between atoms: _424  and  _425
REMARK  174  A    between atoms: _435  and  _437
REMARK  175  A    between atoms: _437  and  _438
REMARK  176  A    between atoms: _440  and  _442
REMARK  177  A    between atoms: _442  and  _443
REMARK  178  A    between atoms: _442  and  _445
REMARK  179  A    between atoms: _445  and  _446
REMARK  180  A    between atoms: _449  and  _451
REMARK  181  A    between atoms: _451  and  _452
REMARK  182  A    between atoms: _451  and  _454
REMARK  183  A    between atoms: _454  and  _455
REMARK  184  A    between atoms: _465  and  _467
REMARK  185  A    between atoms: _467  and  _468
REMARK  186  A    between atoms: _467  and  _470
REMARK  187  A    between atoms: _470  and  _471
REMARK  188  A    between atoms: _473  and  _475
REMARK  189  A    between atoms: _475  and  _476
REMARK  190  A    between atoms: _475  and  _478
REMARK  191  A    between atoms: _478  and  _479
REMARK  192  A    between atoms: _482  and  _484
REMARK  193  A    between atoms: _484  and  _485
REMARK  194  A    between atoms: _484  and  _487
REMARK  195  A    between atoms: _490  and  _492
REMARK  196  A    between atoms: _492  and  _493
REMARK  197  A    between atoms: _492  and  _495
REMARK  198  A    between atoms: _495  and  _496
REMARK  199  A    between atoms: _496  and  _497
REMARK  200  A    between atoms: _502  and  _504
REMARK  201  A    between atoms: _504  and  _505
REMARK  202  A    between atoms: _504  and  _507
REMARK  203  A    between atoms: _507  and  _508
REMARK  204  A    between atoms: _510  and  _512
REMARK  205  A    between atoms: _512  and  _513
REMARK  206  A    between atoms: _512  and  _515
REMARK  207  A    between atoms: _515  and  _516
REMARK  208  A    between atoms: _518  and  _520
REMARK  209  A    between atoms: _520  and  _521
REMARK  210  A    between atoms: _520  and  _523
REMARK  211  A    between atoms: _523  and  _524
REMARK  212  A    between atoms: _527  and  _529
REMARK  213  A    between atoms: _529  and  _530
REMARK  214  A    between atoms: _529  and  _532
REMARK  215  A    between atoms: _532  and  _533
REMARK  216  A    between atoms: _533  and  _534
REMARK  217  A    between atoms: _537  and  _539
REMARK  218  A    between atoms: _539  and  _540
REMARK  219  A    between atoms: _539  and  _542
REMARK  220  A    between atoms: _542  and  _543
REMARK  221  A    between atoms: _549  and  _551
REMARK  222  A    between atoms: _551  and  _552
REMARK  223  A    between atoms: _554  and  _556
REMARK  224  A    between atoms: _556  and  _557
REMARK  225  A    between atoms: _556  and  _559
REMARK  226  A    between atoms: _559  and  _560
REMARK  227  A    between atoms: _565  and  _566
REMARK  228  A    between atoms: _568  and  _570
REMARK  229  A    between atoms: _570  and  _571
REMARK  230  A    between atoms: _570  and  _573
REMARK  231  A    between atoms: _573  and  _574
REMARK  232  A    between atoms: _579  and  _580
REMARK  233  A    between atoms: _582  and  _584
REMARK  234  A    between atoms: _584  and  _585
REMARK  235  A    between atoms: _588  and  _590
REMARK  236  A    between atoms: _590  and  _591
REMARK  237  A    between atoms: _590  and  _593
REMARK  238  A    between atoms: _593  and  _594
REMARK  239  A    between atoms: _594  and  _595
REMARK  240  A    between atoms: _595  and  _596
REMARK                            x       y       z     vdW  Elec       q    Type
REMARK                         _______ _______ _______ _____ _____    ______ ____
ROOT
ATOM      1  CB  ASN A   1      15.193 -16.603  14.984  0.00  0.00    +0.110 C 
ENDROOT
BRANCH   1   2
ATOM      2  CG  ASN A   1      15.579 -15.713  13.807  0.00  0.00    +0.221 C 
ATOM      3  OD1 ASN A   1      15.953 -14.552  14.001  0.00  0.00    -0.275 OA
ATOM      4  ND2 ASN A   1      15.460 -16.239  12.579  0.00  0.00    -0.329 N 
ATOM      5 HD21 ASN A   1      15.141 -17.222  12.463  0.00  0.00    +0.145 HD
ATOM      6 HD22 ASN A   1      15.687 -15.664  11.743  0.00  0.00    +0.145 HD
ENDBRANCH   1   2
BRANCH   1   7
ATOM      7  CA  ASN A   1      13.831 -16.222  15.587  0.00  0.00    +0.142 C 
BRANCH   7   8
ATOM      8  N   ASN A   1      13.475 -17.113  16.700  0.00  0.00    -0.239 NA
ATOM      9  H   ASN A   1      14.087 -17.925  16.921  0.00  0.00    +0.142 HD
ENDBRANCH   7   8
BRANCH   7  10
ATOM     10  C   ASN A   1      12.730 -16.203  14.502  0.00  0.00    +0.225 C 
ATOM     11  O   ASN A   1      12.360 -15.133  14.001  0.00  0.00    -0.287 OA
ENDBRANCH   7  10
ENDBRANCH   1   7
TORSDOF 4
REMARK  Name = ../refined-set-2016/4cg8/4cg8_pocket.pdb
REMARK  240 active torsions:
REMARK  status: ('A' for Active; 'I' for Inactive)
REMARK    1  A    between atoms: _1  and  _3
REMARK    2  A    between atoms: _3  and  _4
REMARK    3  A    between atoms: _3  and  _6
REMARK    4  A    between atoms: _6  and  _7
REMARK    5  A    between atoms: _7  and  _8
REMARK    6  A    between atoms: _8  and  _9
REMARK    7  A    between atoms: _18  and  _20
REMARK    8  A    between atoms: _20  and  _21
REMARK    9  A    between atoms: _20  and  _23
REMARK   10  A    between atoms: _23  and  _24
REMARK   11  A    between atoms: _26  and  _28
REMARK   12  A    between atoms: _28  and  _29
REMARK   13  A    between atoms: _28  and  _31
REMARK   14  A    between atoms: _31  and  _32
REMARK   15  A    between atoms: _37  and  _39
REMARK   16  A    between atoms: _39  and  _40
REMARK   17  A    between atoms: _39  and  _42
REMARK   18  A    between atoms: _42  and  _43
REMARK   19  A    between atoms: _46  and  _48
REMARK   20  A    between atoms: _48  and  _49
REMARK   21  A    between atoms: _48  and  _51
REMARK   22  A    between atoms: _51  and  _52
REMARK   23  A    between atoms: _62  and  _64
REMARK   24  A    between atoms: _64  and  _65
REMARK   25  A    between atoms: _64  and  _67
REMARK   26  A    between atoms: _67  and  _68
REMARK   27  A    between atoms: _71  and  _73
REMARK   28  A    between atoms: _73  and  _74
REMARK   29  A    between atoms: _76  and  _78
REMARK   30  A    between atoms: _78  and  _79
REMARK   31  A    between atoms: _78  and  _81
REMARK   32  A    between atoms: _81  and  _82
REMARK   33  A    between atoms: _85  and  _87
REMARK   34  A    between atoms: _87  and  _88
REMARK   35  A    between atoms: _87  and  _90
REMARK   36  A    between atoms: _90  and  _91
REMARK   37  A    between atoms: _91  and  _92
REMARK   38  A    between atoms: _94  and  _96
REMARK   39  A    between atoms: _96  and  _97
REMARK   40  A    between atoms: _96  and  _99
REMARK   41  A    between atoms: _99  and  _100
REMARK   42  A    between atoms: _100  and  _101
REMARK   43  A    between atoms: _104  and  _106
REMARK   44  A    between atoms: _106  and  _107
REMARK   45  A    between atoms: _106  and  _109
REMARK   46  A    between atoms: _109  and  _110
REMARK   47  A    between atoms: _110  and  _111
REMARK   48  A    between atoms: _111  and  _112
REMARK   49  A    between atoms: _112  and  _113
REMARK   50  A    between atoms: _117  and  _119
REMARK   51  A    between atoms: _119  and  _120
REMARK   52  A    between atoms: _119  and  _122
REMARK   53  A    between atoms: _122  and  _123
REMARK   54  A    between atoms: _128  and  _129
REMARK   55  A    between atoms: _131  and  _133
REMARK   56  A    between atoms: _133  and  _134
REMARK   57  A    between atoms: _133  and  _136
REMARK   58  A    between atoms: _136  and  _137
REMARK   59  A    between atoms: _140  and  _142
REMARK   60  A    between atoms: _142  and  _143
REMARK   61  A    between atoms: _142  and  _145
REMARK   62  A    between atoms: _145  and  _146
REMARK   63  A    between atoms: _151  and  _153
REMARK   64  A    between atoms: _153  and  _154
REMARK   65  A    between atoms: _153  and  _156
REMARK   66  A    between atoms: _156  and  _157
REMARK   67  A    between atoms: _162  and  _164
REMARK   68  A    between atoms: _164  and  _165
REMARK   69  A    between atoms: _164  and  _167
REMARK   70  A    between atoms: _167  and  _168
REMARK   71  A    between atoms: _171  and  _173
REMARK   72  A    between atoms: _173  and  _174
REMARK   73  A    between atoms: _173  and  _176
REMARK   74  A    between atoms: _178  and  _180
REMARK   75  A    between atoms: _180  and  _181
REMARK   76  A    between atoms: _180  and  _183
REMARK   77  A    between atoms: _183  and  _184
REMARK   78  A    between atoms: _184  and  _185
REMARK   79  A    between atoms: _190  and  _192
REMARK   80  A    between atoms: _192  and  _193
REMARK   81  A    between atoms: _192  and  _195
REMARK   82  A    between atoms: _195  and  _196
REMARK   83  A    between atoms: _196  and  _197
REMARK   84  A    between atoms: _200  and  _202
REMARK   85  A    between atoms: _202  and  _203
REMARK   86  A    between atoms: _205  and  _207
REMARK   87  A    between atoms: _207  and  _208
REMARK   88  A    between atoms: _207  and  _210
REMARK   89  A    between atoms: _210  and  _211
REMARK   90  A    between atoms: _216  and  _218
REMARK   91  A    between atoms: _218  and  _219
REMARK   92  A    between atoms: _218  and  _221
REMARK   93  A    between atoms: _221  and  _222
REMARK   94  A    between atoms: _225  and  _227
REMARK   95  A    between atoms: _227  and  _228
REMARK   96  A    between atoms: _227  and  _230
REMARK   97  A    between atoms: _230  and  _231
REMARK   98  A    between atoms: _231  and  _232
REMARK   99  A    between atoms: _235  and  _237
REMARK  100  A    between atoms: _237  and  _238
REMARK  101  A    between atoms: _237  and  _240
REMARK  102  A    between atoms: _240  and  _241
REMARK  103  A    between atoms: _246  and  _247
REMARK  104  A    between atoms: _249  and  _251
REMARK  105  A    between atoms: _251  and  _252
REMARK  106  A    between atoms: _251  and  _254
REMARK  107  A    between atoms: _254  and  _255
REMARK  108  A    between atoms: _257  and  _259
REMARK  109  A    between atoms: _259  and  _260
REMARK  110  A    between atoms: _259  and  _262
REMARK  111  A    between atoms: _262  and  _263
REMARK  112  A    between atoms: _268  and  _270
REMARK  113  A    between atoms: _270  and  _271
REMARK  114  A    between atoms: _270  and  _273
REMARK  115  A    between atoms: _273  and  _274
REMARK  116  A    between atoms: _280  and  _282
REMARK  117  A    between atoms: _282  and  _283
REMARK  118  A    between atoms: _282  and  _285
REMARK  119  A    between atoms: _285  and  _286
REMARK  120  A    between atoms: _291  and  _293
REMARK  121  A    between atoms: _293  and  _294
REMARK  122  A    between atoms: _293  and  _296
REMARK  123  A    between atoms: _296  and  _297
REMARK  124  A    between atoms: _297  and  _298
REMARK  125  A    between atoms: _301  and  _303
REMARK  126  A    between atoms: _303  and  _304
REMARK  127  A    between atoms: _303  and  _306
REMARK  128  A    between atoms: _306  and  _307
REMARK  129  A    between atoms: _312  and  _313
REMARK  130  A    between atoms: _315  and  _317
REMARK  131  A    between atoms: _317  and  _318
REMARK  132  A    between atoms: _317  and  _320
REMARK  133  A    between atoms: _320  and  _321
REMARK  134  A    between atoms: _324  and  _326
REMARK  135  A    between atoms: _326  and  _327
REMARK  136  A    between atoms: _326  and  _329
REMARK  137  A    between atoms: _329  and  _330
REMARK  138  A    between atoms: _335  and  _336
REMARK  139  A    between atoms: _338  and  _340
REMARK  140  A    between atoms: _340  and  _341
REMARK  141  A    between atoms: _340  and  _343
REMARK  142  A    between atoms: _343  and  _344
REMARK  143  A    between atoms: _346  and  _348
REMARK  144  A    between atoms: _348  and  _349
REMARK  145  A    between atoms: _348  and  _351
REMARK  146  A    between atoms: _351  and  _352
REMARK  147  A    between atoms: _357  and  _358
REMARK  148  A    between atoms: _360  and  _362
REMARK  149  A    between atoms: _362  and  _363
REMARK  150  A    between atoms: _362  and  _365
REMARK  151  A    between atoms: _365  and  _366
REMARK  152  A    between atoms: _372  and  _374
REMARK  153  A    between atoms: _374  and  _375
REMARK  154  A    between atoms: _374  and  _377
REMARK  155  A    between atoms: _377  and  _378
REMARK  156  A    between atoms: _384  and  _386
REMARK  157  A    between atoms: _386  and  _387
REMARK  158  A    between atoms: _390  and  _392
REMARK  159  A    between atoms: _392  and  _393
REMARK  160  A    between atoms: _392  and  _395
REMARK  161  A    between atoms: _395  and  _396
REMARK  162  A    between atoms: _398  and  _400
REMARK  163  A    between atoms: _400  and  _401
REMARK  164  A    between atoms: _400  and  _403
REMARK  165  A    between atoms: _403  and  _404
REMARK  166  A    between atoms: _410  and  _412
REMARK  167  A    between atoms: _412  and  _413
REMARK  168  A    between atoms: _412  and  _415
REMARK  169  A    between atoms: _415  and  _416
REMARK  170  A    between atoms: _419  and  _421
REMARK  171  A    between atoms: _421  and  _422
REMARK  172  A    between atoms: _421  and  _424
REMARK  173  A    between atoms: _424  and  _425
REMARK  174  A    between atoms: _435  and  _437
REMARK  175  A    between atoms: _437  and  _438
REMARK  176  A    between atoms: _440  and  _442
REMARK  177  A    between atoms: _442  and  _443
REMARK  178  A    between atoms: _442  and  _445
REMARK  179  A    between atoms: _445  and  _446
REMARK  180  A    between atoms: _449  and  _451
REMARK  181  A    between atoms: _451  and  _452
REMARK  182  A    between atoms: _451  and  _454
REMARK  183  A    between atoms: _454  and  _455
REMARK  184  A    between atoms: _465  and  _467
REMARK  185  A    between atoms: _467  and  _468
REMARK  186  A    between atoms: _467  and  _470
REMARK  187  A    between atoms: _470  and  _471
REMARK  188  A    between atoms: _473  and  _475
REMARK  189  A    between atoms: _475  and  _476
REMARK  190  A    between atoms: _475  and  _478
REMARK  191  A    between atoms: _478  and  _479
REMARK  192  A    between atoms: _482  and  _484
REMARK  193  A    between atoms: _484  and  _485
REMARK  194  A    between atoms: _484  and  _487
REMARK  195  A    between atoms: _490  and  _492
REMARK  196  A    between atoms: _492  and  _493
REMARK  197  A    between atoms: _492  and  _495
REMARK  198  A    between atoms: _495  and  _496
REMARK  199  A    between atoms: _496  and  _497
REMARK  200  A    between atoms: _502  and  _504
REMARK  201  A    between atoms: _504  and  _505
REMARK  202  A    between atoms: _504  and  _507
REMARK  203  A    between atoms: _507  and  _508
REMARK  204  A    between atoms: _510  and  _512
REMARK  205  A    between atoms: _512  and  _513
REMARK  206  A    between atoms: _512  and  _515
REMARK  207  A    between atoms: _515  and  _516
REMARK  208  A    between atoms: _518  and  _520
REMARK  209  A    between atoms: _520  and  _521
REMARK  210  A    between atoms: _520  and  _523
REMARK  211  A    between atoms: _523  and  _524
REMARK  212  A    between atoms: _527  and  _529
REMARK  213  A    between atoms: _529  and  _530
REMARK  214  A    between atoms: _529  and  _532
REMARK  215  A    between atoms: _532  and  _533
REMARK  216  A    between atoms: _533  and  _534
REMARK  217  A    between atoms: _537  and  _539
REMARK  218  A    between atoms: _539  and  _540
REMARK  219  A    between atoms: _539  and  _542
REMARK  220  A    between atoms: _542  and  _543
REMARK  221  A    between atoms: _549  and  _551
REMARK  222  A    between atoms: _551  and  _552
REMARK  223  A    between atoms: _554  and  _556
REMARK  224  A    between atoms: _556  and  _557
REMARK  225  A    between atoms: _556  and  _559
REMARK  226  A    between atoms: _559  and  _560
REMARK  227  A    between atoms: _565  and  _566
REMARK  228  A    between atoms: _568  and  _570
REMARK  229  A    between atoms: _570  and  _571
REMARK  230  A    between atoms: _570  and  _573
REMARK  231  A    between atoms: _573  and  _574
REMARK  232  A    between atoms: _579  and  _580
REMARK  233  A    between atoms: _582  and  _584
REMARK  234  A    between atoms: _584  and  _585
REMARK  235  A    between atoms: _588  and  _590
REMARK  236  A    between atoms: _590  and  _591
REMARK  237  A    between atoms: _590  and  _593
REMARK  238  A    between atoms: _593  and  _594
REMARK  239  A    between atoms: _594  and  _595
REMARK  240  A    between atoms: _595  and  _596
REMARK                            x       y       z     vdW  Elec       q    Type
REMARK                         _______ _______ _______ _____ _____    ______ ____
ROOT
ATOM      1  CA  GLU A   1       9.950 -12.606  11.792  0.00  0.00    +0.134 C 
ENDROOT
BRANCH   1   2
ATOM      2  N   GLU A   1      10.140 -13.020  13.199  0.00  0.00    -0.239 NA
ATOM      3  H   GLU A   1      10.513 -13.968  13.410  0.00  0.00    +0.142 HD
ENDBRANCH   1   2
BRANCH   1   4
ATOM      4  C   GLU A   1       8.493 -12.401  11.396  0.00  0.00    +0.224 C 
ATOM      5  O   GLU A   1       8.218 -11.769  10.387  0.00  0.00    -0.287 OA
ENDBRANCH   1   4
BRANCH   1   6
ATOM      6  CB  GLU A   1      10.663 -13.568  10.828  0.00  0.00    +0.037 C 
BRANCH   6   7
ATOM      7  CG  GLU A   1      12.194 -13.513  10.947  0.00  0.00    +0.116 C 
BRANCH   7   8
ATOM      8  CD  GLU A   1      12.811 -12.237  10.371  0.00  0.00    +0.365 C 
ATOM      9  OE2 GLU A   1      14.038 -12.064  10.476  0.00  0.00    -0.246 OA
ATOM     10  OE1 GLU A   1      12.082 -11.382   9.847  0.00  0.00    -0.246 OA
ENDBRANCH   7   8
ENDBRANCH   6   7
ENDBRANCH   1   6
TORSDOF 5
REMARK  Name = ../refined-set-2016/4cg8/4cg8_pocket.pdb
REMARK  240 active torsions:
REMARK  status: ('A' for Active; 'I' for Inactive)
REMARK    1  A    between atoms: _1  and  _3
REMARK    2  A    between atoms: _3  and  _4
REMARK    3  A    between atoms: _3  and  _6
REMARK    4  A    between atoms: _6  and  _7
REMARK    5  A    between atoms: _7  and  _8
REMARK    6  A    between atoms: _8  and  _9
REMARK    7  A    between atoms: _18  and  _20
REMARK    8  A    between atoms: _20  and  _21
REMARK    9  A    between atoms: _20  and  _23
REMARK   10  A    between atoms: _23  and  _24
REMARK   11  A    between atoms: _26  and  _28
REMARK   12  A    between atoms: _28  and  _29
REMARK   13  A    between atoms: _28  and  _31
REMARK   14  A    between atoms: _31  and  _32
REMARK   15  A    between atoms: _37  and  _39
REMARK   16  A    between atoms: _39  and  _40
REMARK   17  A    between atoms: _39  and  _42
REMARK   18  A    between atoms: _42  and  _43
REMARK   19  A    between atoms: _46  and  _48
REMARK   20  A    between atoms: _48  and  _49
REMARK   21  A    between atoms: _48  and  _51
REMARK   22  A    between atoms: _51  and  _52
REMARK   23  A    between atoms: _62  and  _64
REMARK   24  A    between atoms: _64  and  _65
REMARK   25  A    between atoms: _64  and  _67
REMARK   26  A    between atoms: _67  and  _68
REMARK   27  A    between atoms: _71  and  _73
REMARK   28  A    between atoms: _73  and  _74
REMARK   29  A    between atoms: _76  and  _78
REMARK   30  A    between atoms: _78  and  _79
REMARK   31  A    between atoms: _78  and  _81
REMARK   32  A    between atoms: _81  and  _82
REMARK   33  A    between atoms: _85  and  _87
REMARK   34  A    between atoms: _87  and  _88
REMARK   35  A    between atoms: _87  and  _90
REMARK   36  A    between atoms: _90  and  _91
REMARK   37  A    between atoms: _91  and  _92
REMARK   38  A    between atoms: _94  and  _96
REMARK   39  A    between atoms: _96  and  _97
REMARK   40  A    between atoms: _96  and  _99
REMARK   41  A    between atoms: _99  and  _100
REMARK   42  A    between atoms: _100  and  _101
REMARK   43  A    between atoms: _104  and  _106
REMARK   44  A    between atoms: _106  and  _107
REMARK   45  A    between atoms: _106  and  _109
REMARK   46  A    between atoms: _109  and  _110
REMARK   47  A    between atoms: _110  and  _111
REMARK   48  A    between atoms: _111  and  _112
REMARK   49  A    between atoms: _112  and  _113
REMARK   50  A    between atoms: _117  and  _119
REMARK   51  A    between atoms: _119  and  _120
REMARK   52  A    between atoms: _119  and  _122
REMARK   53  A    between atoms: _122  and  _123
REMARK   54  A    between atoms: _128  and  _129
REMARK   55  A    between atoms: _131  and  _133
REMARK   56  A    between atoms: _133  and  _134
REMARK   57  A    between atoms: _133  and  _136
REMARK   58  A    between atoms: _136  and  _137
REMARK   59  A    between atoms: _140  and  _142
REMARK   60  A    between atoms: _142  and  _143
REMARK   61  A    between atoms: _142  and  _145
REMARK   62  A    between atoms: _145  and  _146
REMARK   63  A    between atoms: _151  and  _153
REMARK   64  A    between atoms: _153  and  _154
REMARK   65  A    between atoms: _153  and  _156
REMARK   66  A    between atoms: _156  and  _157
REMARK   67  A    between atoms: _162  and  _164
REMARK   68  A    between atoms: _164  and  _165
REMARK   69  A    between atoms: _164  and  _167
REMARK   70  A    between atoms: _167  and  _168
REMARK   71  A    between atoms: _171  and  _173
REMARK   72  A    between atoms: _173  and  _174
REMARK   73  A    between atoms: _173  and  _176
REMARK   74  A    between atoms: _178  and  _180
REMARK   75  A    between atoms: _180  and  _181
REMARK   76  A    between atoms: _180  and  _183
REMARK   77  A    between atoms: _183  and  _184
REMARK   78  A    between atoms: _184  and  _185
REMARK   79  A    between atoms: _190  and  _192
REMARK   80  A    between atoms: _192  and  _193
REMARK   81  A    between atoms: _192  and  _195
REMARK   82  A    between atoms: _195  and  _196
REMARK   83  A    between atoms: _196  and  _197
REMARK   84  A    between atoms: _200  and  _202
REMARK   85  A    between atoms: _202  and  _203
REMARK   86  A    between atoms: _205  and  _207
REMARK   87  A    between atoms: _207  and  _208
REMARK   88  A    between atoms: _207  and  _210
REMARK   89  A    between atoms: _210  and  _211
REMARK   90  A    between atoms: _216  and  _218
REMARK   91  A    between atoms: _218  and  _219
REMARK   92  A    between atoms: _218  and  _221
REMARK   93  A    between atoms: _221  and  _222
REMARK   94  A    between atoms: _225  and  _227
REMARK   95  A    between atoms: _227  and  _228
REMARK   96  A    between atoms: _227  and  _230
REMARK   97  A    between atoms: _230  and  _231
REMARK   98  A    between atoms: _231  and  _232
REMARK   99  A    between atoms: _235  and  _237
REMARK  100  A    between atoms: _237  and  _238
REMARK  101  A    between atoms: _237  and  _240
REMARK  102  A    between atoms: _240  and  _241
REMARK  103  A    between atoms: _246  and  _247
REMARK  104  A    between atoms: _249  and  _251
REMARK  105  A    between atoms: _251  and  _252
REMARK  106  A    between atoms: _251  and  _254
REMARK  107  A    between atoms: _254  and  _255
REMARK  108  A    between atoms: _257  and  _259
REMARK  109  A    between atoms: _259  and  _260
REMARK  110  A    between atoms: _259  and  _262
REMARK  111  A    between atoms: _262  and  _263
REMARK  112  A    between atoms: _268  and  _270
REMARK  113  A    between atoms: _270  and  _271
REMARK  114  A    between atoms: _270  and  _273
REMARK  115  A    between atoms: _273  and  _274
REMARK  116  A    between atoms: _280  and  _282
REMARK  117  A    between atoms: _282  and  _283
REMARK  118  A    between atoms: _282  and  _285
REMARK  119  A    between atoms: _285  and  _286
REMARK  120  A    between atoms: _291  and  _293
REMARK  121  A    between atoms: _293  and  _294
REMARK  122  A    between atoms: _293  and  _296
REMARK  123  A    between atoms: _296  and  _297
REMARK  124  A    between atoms: _297  and  _298
REMARK  125  A    between atoms: _301  and  _303
REMARK  126  A    between atoms: _303  and  _304
REMARK  127  A    between atoms: _303  and  _306
REMARK  128  A    between atoms: _306  and  _307
REMARK  129  A    between atoms: _312  and  _313
REMARK  130  A    between atoms: _315  and  _317
REMARK  131  A    between atoms: _317  and  _318
REMARK  132  A    between atoms: _317  and  _320
REMARK  133  A    between atoms: _320  and  _321
REMARK  134  A    between atoms: _324  and  _326
REMARK  135  A    between atoms: _326  and  _327
REMARK  136  A    between atoms: _326  and  _329
REMARK  137  A    between atoms: _329  and  _330
REMARK  138  A    between atoms: _335  and  _336
REMARK  139  A    between atoms: _338  and  _340
REMARK  140  A    between atoms: _340  and  _341
REMARK  141  A    between atoms: _340  and  _343
REMARK  142  A    between atoms: _343  and  _344
REMARK  143  A    between atoms: _346  and  _348
REMARK  144  A    between atoms: _348  and  _349
REMARK  145  A    between atoms: _348  and  _351
REMARK  146  A    between atoms: _351  and  _352
REMARK  147  A    between atoms: _357  and  _358
REMARK  148  A    between atoms: _360  and  _362
REMARK  149  A    between atoms: _362  and  _363
REMARK  150  A    between atoms: _362  and  _365
REMARK  151  A    between atoms: _365  and  _366
REMARK  152  A    between atoms: _372  and  _374
REMARK  153  A    between atoms: _374  and  _375
REMARK  154  A    between atoms: _374  and  _377
REMARK  155  A    between atoms: _377  and  _378
REMARK  156  A    between atoms: _384  and  _386
REMARK  157  A    between atoms: _386  and  _387
REMARK  158  A    between atoms: _390  and  _392
REMARK  159  A    between atoms: _392  and  _393
REMARK  160  A    between atoms: _392  and  _395
REMARK  161  A    between atoms: _395  and  _396
REMARK  162  A    between atoms: _398  and  _400
REMARK  163  A    between atoms: _400  and  _401
REMARK  164  A    between atoms: _400  and  _403
REMARK  165  A    between atoms: _403  and  _404
REMARK  166  A    between atoms: _410  and  _412
REMARK  167  A    between atoms: _412  and  _413
REMARK  168  A    between atoms: _412  and  _415
REMARK  169  A    between atoms: _415  and  _416
REMARK  170  A    between atoms: _419  and  _421
REMARK  171  A    between atoms: _421  and  _422
REMARK  172  A    between atoms: _421  and  _424
REMARK  173  A    between atoms: _424  and  _425
REMARK  174  A    between atoms: _435  and  _437
REMARK  175  A    between atoms: _437  and  _438
REMARK  176  A    between atoms: _440  and  _442
REMARK  177  A    between atoms: _442  and  _443
REMARK  178  A    between atoms: _442  and  _445
REMARK  179  A    between atoms: _445  and  _446
REMARK  180  A    between atoms: _449  and  _451
REMARK  181  A    between atoms: _451  and  _452
REMARK  182  A    between atoms: _451  and  _454
REMARK  183  A    between atoms: _454  and  _455
REMARK  184  A    between atoms: _465  and  _467
REMARK  185  A    between atoms: _467  and  _468
REMARK  186  A    between atoms: _467  and  _470
REMARK  187  A    between atoms: _470  and  _471
REMARK  188  A    between atoms: _473  and  _475
REMARK  189  A    between atoms: _475  and  _476
REMARK  190  A    between atoms: _475  and  _478
REMARK  191  A    between atoms: _478  and  _479
REMARK  192  A    between atoms: _482  and  _484
REMARK  193  A    between atoms: _484  and  _485
REMARK  194  A    between atoms: _484  and  _487
REMARK  195  A    between atoms: _490  and  _492
REMARK  196  A    between atoms: _492  and  _493
REMARK  197  A    between atoms: _492  and  _495
REMARK  198  A    between atoms: _495  and  _496
REMARK  199  A    between atoms: _496  and  _497
REMARK  200  A    between atoms: _502  and  _504
REMARK  201  A    between atoms: _504  and  _505
REMARK  202  A    between atoms: _504  and  _507
REMARK  203  A    between atoms: _507  and  _508
REMARK  204  A    between atoms: _510  and  _512
REMARK  205  A    between atoms: _512  and  _513
REMARK  206  A    between atoms: _512  and  _515
REMARK  207  A    between atoms: _515  and  _516
REMARK  208  A    between atoms: _518  and  _520
REMARK  209  A    between atoms: _520  and  _521
REMARK  210  A    between atoms: _520  and  _523
REMARK  211  A    between atoms: _523  and  _524
REMARK  212  A    between atoms: _527  and  _529
REMARK  213  A    between atoms: _529  and  _530
REMARK  214  A    between atoms: _529  and  _532
REMARK  215  A    between atoms: _532  and  _533
REMARK  216  A    between atoms: _533  and  _534
REMARK  217  A    between atoms: _537  and  _539
REMARK  218  A    between atoms: _539  and  _540
REMARK  219  A    between atoms: _539  and  _542
REMARK  220  A    between atoms: _542  and  _543
REMARK  221  A    between atoms: _549  and  _551
REMARK  222  A    between atoms: _551  and  _552
REMARK  223  A    between atoms: _554  and  _556
REMARK  224  A    between atoms: _556  and  _557
REMARK  225  A    between atoms: _556  and  _559
REMARK  226  A    between atoms: _559  and  _560
REMARK  227  A    between atoms: _565  and  _566
REMARK  228  A    between atoms: _568  and  _570
REMARK  229  A    between atoms: _570  and  _571
REMARK  230  A    between atoms: _570  and  _573
REMARK  231  A    between atoms: _573  and  _574
REMARK  232  A    between atoms: _579  and  _580
REMARK  233  A    between atoms: _582  and  _584
REMARK  234  A    between atoms: _584  and  _585
REMARK  235  A    between atoms: _588  and  _590
REMARK  236  A    between atoms: _590  and  _591
REMARK  237  A    between atoms: _590  and  _593
REMARK  238  A    between atoms: _593  and  _594
REMARK  239  A    between atoms: _594  and  _595
REMARK  240  A    between atoms: _595  and  _596
REMARK                            x       y       z     vdW  Elec       q    Type
REMARK                         _______ _______ _______ _____ _____    ______ ____
ROOT
ATOM      1  CA  TYR A   3      10.635  -6.036   4.265  0.00  0.00    +0.153 C 
ENDROOT
BRANCH   1   4
ATOM      2  C   ASP A   2       8.712  -5.981   5.753  0.00  0.00    +0.241 C 
ATOM      3  O   ASP A   2       8.869  -4.783   5.989  0.00  0.00    -0.273 OA
ATOM      4  N   TYR A   3       9.488  -6.660   4.918  0.00  0.00    -0.297 N 
ATOM      5  H   TYR A   3       9.274  -7.659   4.724  0.00  0.00    +0.150 HD
BRANCH   2   6
ATOM      6  CA  ASP A   2       7.629  -6.773   6.472  0.00  0.00    +0.160 C 
BRANCH   6   9
ATOM      7  C   TYR A   1       8.311  -7.808   8.596  0.00  0.00    +0.239 C 
ATOM      8  O   TYR A   1       8.420  -8.940   8.125  0.00  0.00    -0.274 OA
ATOM      9  N   ASP A   2       7.925  -6.737   7.899  0.00  0.00    -0.297 N 
ATOM     10  H   ASP A   2       7.831  -5.830   8.400  0.00  0.00    +0.150 HD
BRANCH   7  11
ATOM     11  CA  TYR A   1       8.645  -7.549  10.042  0.00  0.00    +0.149 C 
BRANCH  11  12
ATOM     12  N   TYR A   1       7.895  -8.420  10.962  0.00  0.00    -0.238 NA
ATOM     13  H   TYR A   1       7.989  -9.452  10.879  0.00  0.00    +0.142 HD
ENDBRANCH  11  12
BRANCH  11  14
ATOM     14  CB  TYR A   1      10.162  -7.689  10.285  0.00  0.00    +0.053 C 
BRANCH  14  15
ATOM     15  CG  TYR A   1      10.492  -7.444  11.736  0.00  0.00    -0.020 A 
ATOM     16  CD2 TYR A   1      10.913  -8.480  12.564  0.00  0.00    -0.001 A 
ATOM     17  CE2 TYR A   1      11.181  -8.267  13.915  0.00  0.00    +0.036 A 
ATOM     18  CZ  TYR A   1      11.024  -6.988  14.446  0.00  0.00    +0.134 A 
ATOM     19  CE1 TYR A   1      10.603  -5.943  13.637  0.00  0.00    +0.036 A 
ATOM     20  CD1 TYR A   1      10.340  -6.174  12.293  0.00  0.00    -0.001 A 
BRANCH  18  21
ATOM     21  OH  TYR A   1      11.293  -6.771  15.797  0.00  0.00    -0.506 OA
ATOM     22  HH  TYR A   1      11.134  -5.818  16.015  0.00  0.00    +0.292 HD
ENDBRANCH  18  21
ENDBRANCH  14  15
ENDBRANCH  11  14
ENDBRANCH   7  11
ENDBRANCH   6   9
BRANCH   6  23
ATOM     23  CB  ASP A   2       6.257  -6.143   6.223  0.00  0.00    +0.143 C 
BRANCH  23  24
ATOM     24  CG  ASP A   2       5.809  -6.240   4.769  0.00  0.00    +0.367 C 
ATOM     25  OD2 ASP A   2       4.605  -6.040   4.527  0.00  0.00    -0.246 OA
ATOM     26  OD1 ASP A   2       6.638  -6.487   3.871  0.00  0.00    -0.246 OA
ENDBRANCH  23  24
ENDBRANCH   6  23
ENDBRANCH   2   6
ENDBRANCH   1   4
BRANCH   1  27
ATOM     27  C   TYR A   3      10.296  -5.585   2.848  0.00  0.00    +0.241 C 
ATOM     28  N   SER A   4       9.000  -5.573   2.532  0.00  0.00    -0.295 N 
ATOM     29  H   SER A   4       8.301  -5.817   3.262  0.00  0.00    +0.150 HD
ATOM     30  O   TYR A   3      11.197  -5.257   2.067  0.00  0.00    -0.273 OA
BRANCH  28  31
ATOM     31  CA  SER A   4       8.529  -5.224   1.178  0.00  0.00    +0.178 C 
BRANCH  31  32
ATOM     32  C   SER A   4       8.113  -3.753   1.044  0.00  0.00    +0.243 C 
ATOM     33  N   TYR A   5       8.145  -3.018   2.154  0.00  0.00    -0.298 N 
ATOM     34  H   TYR A   5       8.468  -3.465   3.036  0.00  0.00    +0.150 HD
ATOM     35  O   SER A   4       7.763  -3.301  -0.054  0.00  0.00    -0.273 OA
BRANCH  33  36
ATOM     36  CA  TYR A   5       7.744  -1.603   2.190  0.00  0.00    +0.141 C 
BRANCH  36  37
ATOM     37  C   TYR A   5       8.594  -0.788   1.219  0.00  0.00    +0.227 C 
ATOM     38  O   TYR A   5       9.816  -0.844   1.267  0.00  0.00    -0.286 OA
ENDBRANCH  36  37
BRANCH  36  39
ATOM     39  CB  TYR A   5       7.881  -1.076   3.617  0.00  0.00    +0.054 C 
BRANCH  39  40
ATOM     40  CG  TYR A   5       7.216   0.251   3.919  0.00  0.00    -0.020 A 
ATOM     41  CD2 TYR A   5       7.893   1.233   4.644  0.00  0.00    -0.001 A 
ATOM     42  CE2 TYR A   5       7.292   2.444   4.952  0.00  0.00    +0.036 A 
ATOM     43  CZ  TYR A   5       5.990   2.678   4.543  0.00  0.00    +0.134 A 
ATOM     44  CE1 TYR A   5       5.289   1.714   3.832  0.00  0.00    +0.036 A 
ATOM     45  CD1 TYR A   5       5.898   0.504   3.536  0.00  0.00    -0.001 A 
BRANCH  43  46
ATOM     46  OH  TYR A   5       5.384   3.876   4.842  0.00  0.00    -0.506 OA
ATOM     47  HH  TYR A   5       4.463   3.878   4.479  0.00  0.00    +0.292 HD
ENDBRANCH  43  46
ENDBRANCH  39  40
ENDBRANCH  36  39
ENDBRANCH  33  36
ENDBRANCH  31  32
BRANCH  31  48
ATOM     48  CB  SER A   4       7.380  -6.156   0.749  0.00  0.00    +0.166 C 
BRANCH  48  49
ATOM     49  OG  SER A   4       6.150  -5.776   1.354  0.00  0.00    -0.380 OA
ATOM     50  H   SER A   4       6.240  -5.821   2.339  0.00  0.00    +0.211 HD
ENDBRANCH  48  49
ENDBRANCH  31  48
ENDBRANCH  28  31
ENDBRANCH   1  27
BRANCH   1  51
ATOM     51  CB  TYR A   3      11.834  -6.985   4.260  0.00  0.00    +0.055 C 
BRANCH  51  52
ATOM     52  CG  TYR A   3      12.191  -7.480   5.633  0.00  0.00    -0.020 A 
ATOM     53  CD2 TYR A   3      12.671  -6.606   6.610  0.00  0.00    -0.001 A 
ATOM     54  CE2 TYR A   3      13.005  -7.064   7.878  0.00  0.00    +0.036 A 
ATOM     55  CZ  TYR A   3      12.854  -8.407   8.186  0.00  0.00    +0.134 A 
ATOM     56  CE1 TYR A   3      12.380  -9.291   7.234  0.00  0.00    +0.036 A 
ATOM     57  CD1 TYR A   3      12.050  -8.824   5.964  0.00  0.00    -0.001 A 
BRANCH  55  58
ATOM     58  OH  TYR A   3      13.178  -8.867   9.447  0.00  0.00    -0.506 OA
ATOM     59  HH  TYR A   3      13.499  -8.111  10.000  0.00  0.00    +0.292 HD
ENDBRANCH  55  58
ENDBRANCH  51  52
ENDBRANCH   1  51
TORSDOF 23
REMARK  Name = ../refined-set-2016/4cg8/4cg8_pocket.pdb
REMARK  240 active torsions:
REMARK  status: ('A' for Active; 'I' for Inactive)
REMARK    1  A    between atoms: _1  and  _3
REMARK    2  A    between atoms: _3  and  _4
REMARK    3  A    between atoms: _3  and  _6
REMARK    4  A    between atoms: _6  and  _7
REMARK    5  A    between atoms: _7  and  _8
REMARK    6  A    between atoms: _8  and  _9
REMARK    7  A    between atoms: _18  and  _20
REMARK    8  A    between atoms: _20  and  _21
REMARK    9  A    between atoms: _20  and  _23
REMARK   10  A    between atoms: _23  and  _24
REMARK   11  A    between atoms: _26  and  _28
REMARK   12  A    between atoms: _28  and  _29
REMARK   13  A    between atoms: _28  and  _31
REMARK   14  A    between atoms: _31  and  _32
REMARK   15  A    between atoms: _37  and  _39
REMARK   16  A    between atoms: _39  and  _40
REMARK   17  A    between atoms: _39  and  _42
REMARK   18  A    between atoms: _42  and  _43
REMARK   19  A    between atoms: _46  and  _48
REMARK   20  A    between atoms: _48  and  _49
REMARK   21  A    between atoms: _48  and  _51
REMARK   22  A    between atoms: _51  and  _52
REMARK   23  A    between atoms: _62  and  _64
REMARK   24  A    between atoms: _64  and  _65
REMARK   25  A    between atoms: _64  and  _67
REMARK   26  A    between atoms: _67  and  _68
REMARK   27  A    between atoms: _71  and  _73
REMARK   28  A    between atoms: _73  and  _74
REMARK   29  A    between atoms: _76  and  _78
REMARK   30  A    between atoms: _78  and  _79
REMARK   31  A    between atoms: _78  and  _81
REMARK   32  A    between atoms: _81  and  _82
REMARK   33  A    between atoms: _85  and  _87
REMARK   34  A    between atoms: _87  and  _88
REMARK   35  A    between atoms: _87  and  _90
REMARK   36  A    between atoms: _90  and  _91
REMARK   37  A    between atoms: _91  and  _92
REMARK   38  A    between atoms: _94  and  _96
REMARK   39  A    between atoms: _96  and  _97
REMARK   40  A    between atoms: _96  and  _99
REMARK   41  A    between atoms: _99  and  _100
REMARK   42  A    between atoms: _100  and  _101
REMARK   43  A    between atoms: _104  and  _106
REMARK   44  A    between atoms: _106  and  _107
REMARK   45  A    between atoms: _106  and  _109
REMARK   46  A    between atoms: _109  and  _110
REMARK   47  A    between atoms: _110  and  _111
REMARK   48  A    between atoms: _111  and  _112
REMARK   49  A    between atoms: _112  and  _113
REMARK   50  A    between atoms: _117  and  _119
REMARK   51  A    between atoms: _119  and  _120
REMARK   52  A    between atoms: _119  and  _122
REMARK   53  A    between atoms: _122  and  _123
REMARK   54  A    between atoms: _128  and  _129
REMARK   55  A    between atoms: _131  and  _133
REMARK   56  A    between atoms: _133  and  _134
REMARK   57  A    between atoms: _133  and  _136
REMARK   58  A    between atoms: _136  and  _137
REMARK   59  A    between atoms: _140  and  _142
REMARK   60  A    between atoms: _142  and  _143
REMARK   61  A    between atoms: _142  and  _145
REMARK   62  A    between atoms: _145  and  _146
REMARK   63  A    between atoms: _151  and  _153
REMARK   64  A    between atoms: _153  and  _154
REMARK   65  A    between atoms: _153  and  _156
REMARK   66  A    between atoms: _156  and  _157
REMARK   67  A    between atoms: _162  and  _164
REMARK   68  A    between atoms: _164  and  _165
REMARK   69  A    between atoms: _164  and  _167
REMARK   70  A    between atoms: _167  and  _168
REMARK   71  A    between atoms: _171  and  _173
REMARK   72  A    between atoms: _173  and  _174
REMARK   73  A    between atoms: _173  and  _176
REMARK   74  A    between atoms: _178  and  _180
REMARK   75  A    between atoms: _180  and  _181
REMARK   76  A    between atoms: _180  and  _183
REMARK   77  A    between atoms: _183  and  _184
REMARK   78  A    between atoms: _184  and  _185
REMARK   79  A    between atoms: _190  and  _192
REMARK   80  A    between atoms: _192  and  _193
REMARK   81  A    between atoms: _192  and  _195
REMARK   82  A    between atoms: _195  and  _196
REMARK   83  A    between atoms: _196  and  _197
REMARK   84  A    between atoms: _200  and  _202
REMARK   85  A    between atoms: _202  and  _203
REMARK   86  A    between atoms: _205  and  _207
REMARK   87  A    between atoms: _207  and  _208
REMARK   88  A    between atoms: _207  and  _210
REMARK   89  A    between atoms: _210  and  _211
REMARK   90  A    between atoms: _216  and  _218
REMARK   91  A    between atoms: _218  and  _219
REMARK   92  A    between atoms: _218  and  _221
REMARK   93  A    between atoms: _221  and  _222
REMARK   94  A    between atoms: _225  and  _227
REMARK   95  A    between atoms: _227  and  _228
REMARK   96  A    between atoms: _227  and  _230
REMARK   97  A    between atoms: _230  and  _231
REMARK   98  A    between atoms: _231  and  _232
REMARK   99  A    between atoms: _235  and  _237
REMARK  100  A    between atoms: _237  and  _238
REMARK  101  A    between atoms: _237  and  _240
REMARK  102  A    between atoms: _240  and  _241
REMARK  103  A    between atoms: _246  and  _247
REMARK  104  A    between atoms: _249  and  _251
REMARK  105  A    between atoms: _251  and  _252
REMARK  106  A    between atoms: _251  and  _254
REMARK  107  A    between atoms: _254  and  _255
REMARK  108  A    between atoms: _257  and  _259
REMARK  109  A    between atoms: _259  and  _260
REMARK  110  A    between atoms: _259  and  _262
REMARK  111  A    between atoms: _262  and  _263
REMARK  112  A    between atoms: _268  and  _270
REMARK  113  A    between atoms: _270  and  _271
REMARK  114  A    between atoms: _270  and  _273
REMARK  115  A    between atoms: _273  and  _274
REMARK  116  A    between atoms: _280  and  _282
REMARK  117  A    between atoms: _282  and  _283
REMARK  118  A    between atoms: _282  and  _285
REMARK  119  A    between atoms: _285  and  _286
REMARK  120  A    between atoms: _291  and  _293
REMARK  121  A    between atoms: _293  and  _294
REMARK  122  A    between atoms: _293  and  _296
REMARK  123  A    between atoms: _296  and  _297
REMARK  124  A    between atoms: _297  and  _298
REMARK  125  A    between atoms: _301  and  _303
REMARK  126  A    between atoms: _303  and  _304
REMARK  127  A    between atoms: _303  and  _306
REMARK  128  A    between atoms: _306  and  _307
REMARK  129  A    between atoms: _312  and  _313
REMARK  130  A    between atoms: _315  and  _317
REMARK  131  A    between atoms: _317  and  _318
REMARK  132  A    between atoms: _317  and  _320
REMARK  133  A    between atoms: _320  and  _321
REMARK  134  A    between atoms: _324  and  _326
REMARK  135  A    between atoms: _326  and  _327
REMARK  136  A    between atoms: _326  and  _329
REMARK  137  A    between atoms: _329  and  _330
REMARK  138  A    between atoms: _335  and  _336
REMARK  139  A    between atoms: _338  and  _340
REMARK  140  A    between atoms: _340  and  _341
REMARK  141  A    between atoms: _340  and  _343
REMARK  142  A    between atoms: _343  and  _344
REMARK  143  A    between atoms: _346  and  _348
REMARK  144  A    between atoms: _348  and  _349
REMARK  145  A    between atoms: _348  and  _351
REMARK  146  A    between atoms: _351  and  _352
REMARK  147  A    between atoms: _357  and  _358
REMARK  148  A    between atoms: _360  and  _362
REMARK  149  A    between atoms: _362  and  _363
REMARK  150  A    between atoms: _362  and  _365
REMARK  151  A    between atoms: _365  and  _366
REMARK  152  A    between atoms: _372  and  _374
REMARK  153  A    between atoms: _374  and  _375
REMARK  154  A    between atoms: _374  and  _377
REMARK  155  A    between atoms: _377  and  _378
REMARK  156  A    between atoms: _384  and  _386
REMARK  157  A    between atoms: _386  and  _387
REMARK  158  A    between atoms: _390  and  _392
REMARK  159  A    between atoms: _392  and  _393
REMARK  160  A    between atoms: _392  and  _395
REMARK  161  A    between atoms: _395  and  _396
REMARK  162  A    between atoms: _398  and  _400
REMARK  163  A    between atoms: _400  and  _401
REMARK  164  A    between atoms: _400  and  _403
REMARK  165  A    between atoms: _403  and  _404
REMARK  166  A    between atoms: _410  and  _412
REMARK  167  A    between atoms: _412  and  _413
REMARK  168  A    between atoms: _412  and  _415
REMARK  169  A    between atoms: _415  and  _416
REMARK  170  A    between atoms: _419  and  _421
REMARK  171  A    between atoms: _421  and  _422
REMARK  172  A    between atoms: _421  and  _424
REMARK  173  A    between atoms: _424  and  _425
REMARK  174  A    between atoms: _435  and  _437
REMARK  175  A    between atoms: _437  and  _438
REMARK  176  A    between atoms: _440  and  _442
REMARK  177  A    between atoms: _442  and  _443
REMARK  178  A    between atoms: _442  and  _445
REMARK  179  A    between atoms: _445  and  _446
REMARK  180  A    between atoms: _449  and  _451
REMARK  181  A    between atoms: _451  and  _452
REMARK  182  A    between atoms: _451  and  _454
REMARK  183  A    between atoms: _454  and  _455
REMARK  184  A    between atoms: _465  and  _467
REMARK  185  A    between atoms: _467  and  _468
REMARK  186  A    between atoms: _467  and  _470
REMARK  187  A    between atoms: _470  and  _471
REMARK  188  A    between atoms: _473  and  _475
REMARK  189  A    between atoms: _475  and  _476
REMARK  190  A    between atoms: _475  and  _478
REMARK  191  A    between atoms: _478  and  _479
REMARK  192  A    between atoms: _482  and  _484
REMARK  193  A    between atoms: _484  and  _485
REMARK  194  A    between atoms: _484  and  _487
REMARK  195  A    between atoms: _490  and  _492
REMARK  196  A    between atoms: _492  and  _493
REMARK  197  A    between atoms: _492  and  _495
REMARK  198  A    between atoms: _495  and  _496
REMARK  199  A    between atoms: _496  and  _497
REMARK  200  A    between atoms: _502  and  _504
REMARK  201  A    between atoms: _504  and  _505
REMARK  202  A    between atoms: _504  and  _507
REMARK  203  A    between atoms: _507  and  _508
REMARK  204  A    between atoms: _510  and  _512
REMARK  205  A    between atoms: _512  and  _513
REMARK  206  A    between atoms: _512  and  _515
REMARK  207  A    between atoms: _515  and  _516
REMARK  208  A    between atoms: _518  and  _520
REMARK  209  A    between atoms: _520  and  _521
REMARK  210  A    between atoms: _520  and  _523
REMARK  211  A    between atoms: _523  and  _524
REMARK  212  A    between atoms: _527  and  _529
REMARK  213  A    between atoms: _529  and  _530
REMARK  214  A    between atoms: _529  and  _532
REMARK  215  A    between atoms: _532  and  _533
REMARK  216  A    between atoms: _533  and  _534
REMARK  217  A    between atoms: _537  and  _539
REMARK  218  A    between atoms: _539  and  _540
REMARK  219  A    between atoms: _539  and  _542
REMARK  220  A    between atoms: _542  and  _543
REMARK  221  A    between atoms: _549  and  _551
REMARK  222  A    between atoms: _551  and  _552
REMARK  223  A    between atoms: _554  and  _556
REMARK  224  A    between atoms: _556  and  _557
REMARK  225  A    between atoms: _556  and  _559
REMARK  226  A    between atoms: _559  and  _560
REMARK  227  A    between atoms: _565  and  _566
REMARK  228  A    between atoms: _568  and  _570
REMARK  229  A    between atoms: _570  and  _571
REMARK  230  A    between atoms: _570  and  _573
REMARK  231  A    between atoms: _573  and  _574
REMARK  232  A    between atoms: _579  and  _580
REMARK  233  A    between atoms: _582  and  _584
REMARK  234  A    between atoms: _584  and  _585
REMARK  235  A    between atoms: _588  and  _590
REMARK  236  A    between atoms: _590  and  _591
REMARK  237  A    between atoms: _590  and  _593
REMARK  238  A    between atoms: _593  and  _594
REMARK  239  A    between atoms: _594  and  _595
REMARK  240  A    between atoms: _595  and  _596
REMARK                            x       y       z     vdW  Elec       q    Type
REMARK                         _______ _______ _______ _____ _____    ______ ____
ROOT
ATOM      1  C   PHE A   1      11.643  -1.281   4.384  0.00  0.00    +0.239 C 
ATOM      2  N   PHE A   2      11.047  -1.086   5.555  0.00  0.00    -0.298 N 
ATOM      3  H   PHE A   2      11.009  -0.118   5.932  0.00  0.00    +0.150 HD
ATOM      4  O   PHE A   1      11.889  -2.401   3.920  0.00  0.00    -0.274 OA
ENDROOT
BRANCH   1   5
ATOM      5  CA  PHE A   1      12.011  -0.006   3.607  0.00  0.00    +0.149 C 
BRANCH   5   6
ATOM      6  N   PHE A   1      12.071   1.195   4.450  0.00  0.00    -0.238 NA
ATOM      7  H   PHE A   1      11.288   1.876   4.379  0.00  0.00    +0.142 HD
ENDBRANCH   5   6
BRANCH   5   8
ATOM      8  CB  PHE A   1      13.298  -0.193   2.776  0.00  0.00    +0.053 C 
BRANCH   8   9
ATOM      9  CG  PHE A   1      13.607   0.969   1.874  0.00  0.00    -0.020 A 
ATOM     10  CD2 PHE A   1      14.635   1.850   2.184  0.00  0.00    -0.004 A 
ATOM     11  CE2 PHE A   1      14.917   2.931   1.353  0.00  0.00    -0.000 A 
ATOM     12  CZ  PHE A   1      14.168   3.135   0.202  0.00  0.00    -0.000 A 
ATOM     13  CE1 PHE A   1      13.139   2.263  -0.122  0.00  0.00    -0.000 A 
ATOM     14  CD1 PHE A   1      12.859   1.189   0.713  0.00  0.00    -0.004 A 
ENDBRANCH   8   9
ENDBRANCH   5   8
ENDBRANCH   1   5
BRANCH   2  15
ATOM     15  CA  PHE A   2      10.439  -2.162   6.345  0.00  0.00    +0.141 C 
BRANCH  15  16
ATOM     16  C   PHE A   2       9.303  -1.593   7.175  0.00  0.00    +0.227 C 
ATOM     17  O   PHE A   2       9.281  -0.397   7.485  0.00  0.00    -0.286 OA
ENDBRANCH  15  16
BRANCH  15  18
ATOM     18  CB  PHE A   2      11.470  -2.845   7.268  0.00  0.00    +0.054 C 
BRANCH  18  19
ATOM     19  CG  PHE A   2      11.816  -2.032   8.490  0.00  0.00    -0.020 A 
ATOM     20  CD2 PHE A   2      11.094  -2.186   9.675  0.00  0.00    -0.004 A 
ATOM     21  CE2 PHE A   2      11.390  -1.427  10.799  0.00  0.00    -0.000 A 
ATOM     22  CZ  PHE A   2      12.423  -0.490  10.740  0.00  0.00    -0.000 A 
ATOM     23  CE1 PHE A   2      13.145  -0.323   9.567  0.00  0.00    -0.000 A 
ATOM     24  CD1 PHE A   2      12.840  -1.077   8.442  0.00  0.00    -0.004 A 
ENDBRANCH  18  19
ENDBRANCH  15  18
ENDBRANCH   2  15
TORSDOF 8
REMARK  Name = ../refined-set-2016/4cg8/4cg8_pocket.pdb
REMARK  240 active torsions:
REMARK  status: ('A' for Active; 'I' for Inactive)
REMARK    1  A    between atoms: _1  and  _3
REMARK    2  A    between atoms: _3  and  _4
REMARK    3  A    between atoms: _3  and  _6
REMARK    4  A    between atoms: _6  and  _7
REMARK    5  A    between atoms: _7  and  _8
REMARK    6  A    between atoms: _8  and  _9
REMARK    7  A    between atoms: _18  and  _20
REMARK    8  A    between atoms: _20  and  _21
REMARK    9  A    between atoms: _20  and  _23
REMARK   10  A    between atoms: _23  and  _24
REMARK   11  A    between atoms: _26  and  _28
REMARK   12  A    between atoms: _28  and  _29
REMARK   13  A    between atoms: _28  and  _31
REMARK   14  A    between atoms: _31  and  _32
REMARK   15  A    between atoms: _37  and  _39
REMARK   16  A    between atoms: _39  and  _40
REMARK   17  A    between atoms: _39  and  _42
REMARK   18  A    between atoms: _42  and  _43
REMARK   19  A    between atoms: _46  and  _48
REMARK   20  A    between atoms: _48  and  _49
REMARK   21  A    between atoms: _48  and  _51
REMARK   22  A    between atoms: _51  and  _52
REMARK   23  A    between atoms: _62  and  _64
REMARK   24  A    between atoms: _64  and  _65
REMARK   25  A    between atoms: _64  and  _67
REMARK   26  A    between atoms: _67  and  _68
REMARK   27  A    between atoms: _71  and  _73
REMARK   28  A    between atoms: _73  and  _74
REMARK   29  A    between atoms: _76  and  _78
REMARK   30  A    between atoms: _78  and  _79
REMARK   31  A    between atoms: _78  and  _81
REMARK   32  A    between atoms: _81  and  _82
REMARK   33  A    between atoms: _85  and  _87
REMARK   34  A    between atoms: _87  and  _88
REMARK   35  A    between atoms: _87  and  _90
REMARK   36  A    between atoms: _90  and  _91
REMARK   37  A    between atoms: _91  and  _92
REMARK   38  A    between atoms: _94  and  _96
REMARK   39  A    between atoms: _96  and  _97
REMARK   40  A    between atoms: _96  and  _99
REMARK   41  A    between atoms: _99  and  _100
REMARK   42  A    between atoms: _100  and  _101
REMARK   43  A    between atoms: _104  and  _106
REMARK   44  A    between atoms: _106  and  _107
REMARK   45  A    between atoms: _106  and  _109
REMARK   46  A    between atoms: _109  and  _110
REMARK   47  A    between atoms: _110  and  _111
REMARK   48  A    between atoms: _111  and  _112
REMARK   49  A    between atoms: _112  and  _113
REMARK   50  A    between atoms: _117  and  _119
REMARK   51  A    between atoms: _119  and  _120
REMARK   52  A    between atoms: _119  and  _122
REMARK   53  A    between atoms: _122  and  _123
REMARK   54  A    between atoms: _128  and  _129
REMARK   55  A    between atoms: _131  and  _133
REMARK   56  A    between atoms: _133  and  _134
REMARK   57  A    between atoms: _133  and  _136
REMARK   58  A    between atoms: _136  and  _137
REMARK   59  A    between atoms: _140  and  _142
REMARK   60  A    between atoms: _142  and  _143
REMARK   61  A    between atoms: _142  and  _145
REMARK   62  A    between atoms: _145  and  _146
REMARK   63  A    between atoms: _151  and  _153
REMARK   64  A    between atoms: _153  and  _154
REMARK   65  A    between atoms: _153  and  _156
REMARK   66  A    between atoms: _156  and  _157
REMARK   67  A    between atoms: _162  and  _164
REMARK   68  A    between atoms: _164  and  _165
REMARK   69  A    between atoms: _164  and  _167
REMARK   70  A    between atoms: _167  and  _168
REMARK   71  A    between atoms: _171  and  _173
REMARK   72  A    between atoms: _173  and  _174
REMARK   73  A    between atoms: _173  and  _176
REMARK   74  A    between atoms: _178  and  _180
REMARK   75  A    between atoms: _180  and  _181
REMARK   76  A    between atoms: _180  and  _183
REMARK   77  A    between atoms: _183  and  _184
REMARK   78  A    between atoms: _184  and  _185
REMARK   79  A    between atoms: _190  and  _192
REMARK   80  A    between atoms: _192  and  _193
REMARK   81  A    between atoms: _192  and  _195
REMARK   82  A    between atoms: _195  and  _196
REMARK   83  A    between atoms: _196  and  _197
REMARK   84  A    between atoms: _200  and  _202
REMARK   85  A    between atoms: _202  and  _203
REMARK   86  A    between atoms: _205  and  _207
REMARK   87  A    between atoms: _207  and  _208
REMARK   88  A    between atoms: _207  and  _210
REMARK   89  A    between atoms: _210  and  _211
REMARK   90  A    between atoms: _216  and  _218
REMARK   91  A    between atoms: _218  and  _219
REMARK   92  A    between atoms: _218  and  _221
REMARK   93  A    between atoms: _221  and  _222
REMARK   94  A    between atoms: _225  and  _227
REMARK   95  A    between atoms: _227  and  _228
REMARK   96  A    between atoms: _227  and  _230
REMARK   97  A    between atoms: _230  and  _231
REMARK   98  A    between atoms: _231  and  _232
REMARK   99  A    between atoms: _235  and  _237
REMARK  100  A    between atoms: _237  and  _238
REMARK  101  A    between atoms: _237  and  _240
REMARK  102  A    between atoms: _240  and  _241
REMARK  103  A    between atoms: _246  and  _247
REMARK  104  A    between atoms: _249  and  _251
REMARK  105  A    between atoms: _251  and  _252
REMARK  106  A    between atoms: _251  and  _254
REMARK  107  A    between atoms: _254  and  _255
REMARK  108  A    between atoms: _257  and  _259
REMARK  109  A    between atoms: _259  and  _260
REMARK  110  A    between atoms: _259  and  _262
REMARK  111  A    between atoms: _262  and  _263
REMARK  112  A    between atoms: _268  and  _270
REMARK  113  A    between atoms: _270  and  _271
REMARK  114  A    between atoms: _270  and  _273
REMARK  115  A    between atoms: _273  and  _274
REMARK  116  A    between atoms: _280  and  _282
REMARK  117  A    between atoms: _282  and  _283
REMARK  118  A    between atoms: _282  and  _285
REMARK  119  A    between atoms: _285  and  _286
REMARK  120  A    between atoms: _291  and  _293
REMARK  121  A    between atoms: _293  and  _294
REMARK  122  A    between atoms: _293  and  _296
REMARK  123  A    between atoms: _296  and  _297
REMARK  124  A    between atoms: _297  and  _298
REMARK  125  A    between atoms: _301  and  _303
REMARK  126  A    between atoms: _303  and  _304
REMARK  127  A    between atoms: _303  and  _306
REMARK  128  A    between atoms: _306  and  _307
REMARK  129  A    between atoms: _312  and  _313
REMARK  130  A    between atoms: _315  and  _317
REMARK  131  A    between atoms: _317  and  _318
REMARK  132  A    between atoms: _317  and  _320
REMARK  133  A    between atoms: _320  and  _321
REMARK  134  A    between atoms: _324  and  _326
REMARK  135  A    between atoms: _326  and  _327
REMARK  136  A    between atoms: _326  and  _329
REMARK  137  A    between atoms: _329  and  _330
REMARK  138  A    between atoms: _335  and  _336
REMARK  139  A    between atoms: _338  and  _340
REMARK  140  A    between atoms: _340  and  _341
REMARK  141  A    between atoms: _340  and  _343
REMARK  142  A    between atoms: _343  and  _344
REMARK  143  A    between atoms: _346  and  _348
REMARK  144  A    between atoms: _348  and  _349
REMARK  145  A    between atoms: _348  and  _351
REMARK  146  A    between atoms: _351  and  _352
REMARK  147  A    between atoms: _357  and  _358
REMARK  148  A    between atoms: _360  and  _362
REMARK  149  A    between atoms: _362  and  _363
REMARK  150  A    between atoms: _362  and  _365
REMARK  151  A    between atoms: _365  and  _366
REMARK  152  A    between atoms: _372  and  _374
REMARK  153  A    between atoms: _374  and  _375
REMARK  154  A    between atoms: _374  and  _377
REMARK  155  A    between atoms: _377  and  _378
REMARK  156  A    between atoms: _384  and  _386
REMARK  157  A    between atoms: _386  and  _387
REMARK  158  A    between atoms: _390  and  _392
REMARK  159  A    between atoms: _392  and  _393
REMARK  160  A    between atoms: _392  and  _395
REMARK  161  A    between atoms: _395  and  _396
REMARK  162  A    between atoms: _398  and  _400
REMARK  163  A    between atoms: _400  and  _401
REMARK  164  A    between atoms: _400  and  _403
REMARK  165  A    between atoms: _403  and  _404
REMARK  166  A    between atoms: _410  and  _412
REMARK  167  A    between atoms: _412  and  _413
REMARK  168  A    between atoms: _412  and  _415
REMARK  169  A    between atoms: _415  and  _416
REMARK  170  A    between atoms: _419  and  _421
REMARK  171  A    between atoms: _421  and  _422
REMARK  172  A    between atoms: _421  and  _424
REMARK  173  A    between atoms: _424  and  _425
REMARK  174  A    between atoms: _435  and  _437
REMARK  175  A    between atoms: _437  and  _438
REMARK  176  A    between atoms: _440  and  _442
REMARK  177  A    between atoms: _442  and  _443
REMARK  178  A    between atoms: _442  and  _445
REMARK  179  A    between atoms: _445  and  _446
REMARK  180  A    between atoms: _449  and  _451
REMARK  181  A    between atoms: _451  and  _452
REMARK  182  A    between atoms: _451  and  _454
REMARK  183  A    between atoms: _454  and  _455
REMARK  184  A    between atoms: _465  and  _467
REMARK  185  A    between atoms: _467  and  _468
REMARK  186  A    between atoms: _467  and  _470
REMARK  187  A    between atoms: _470  and  _471
REMARK  188  A    between atoms: _473  and  _475
REMARK  189  A    between atoms: _475  and  _476
REMARK  190  A    between atoms: _475  and  _478
REMARK  191  A    between atoms: _478  and  _479
REMARK  192  A    between atoms: _482  and  _484
REMARK  193  A    between atoms: _484  and  _485
REMARK  194  A    between atoms: _484  and  _487
REMARK  195  A    between atoms: _490  and  _492
REMARK  196  A    between atoms: _492  and  _493
REMARK  197  A    between atoms: _492  and  _495
REMARK  198  A    between atoms: _495  and  _496
REMARK  199  A    between atoms: _496  and  _497
REMARK  200  A    between atoms: _502  and  _504
REMARK  201  A    between atoms: _504  and  _505
REMARK  202  A    between atoms: _504  and  _507
REMARK  203  A    between atoms: _507  and  _508
REMARK  204  A    between atoms: _510  and  _512
REMARK  205  A    between atoms: _512  and  _513
REMARK  206  A    between atoms: _512  and  _515
REMARK  207  A    between atoms: _515  and  _516
REMARK  208  A    between atoms: _518  and  _520
REMARK  209  A    between atoms: _520  and  _521
REMARK  210  A    between atoms: _520  and  _523
REMARK  211  A    between atoms: _523  and  _524
REMARK  212  A    between atoms: _527  and  _529
REMARK  213  A    between atoms: _529  and  _530
REMARK  214  A    between atoms: _529  and  _532
REMARK  215  A    between atoms: _532  and  _533
REMARK  216  A    between atoms: _533  and  _534
REMARK  217  A    between atoms: _537  and  _539
REMARK  218  A    between atoms: _539  and  _540
REMARK  219  A    between atoms: _539  and  _542
REMARK  220  A    between atoms: _542  and  _543
REMARK  221  A    between atoms: _549  and  _551
REMARK  222  A    between atoms: _551  and  _552
REMARK  223  A    between atoms: _554  and  _556
REMARK  224  A    between atoms: _556  and  _557
REMARK  225  A    between atoms: _556  and  _559
REMARK  226  A    between atoms: _559  and  _560
REMARK  227  A    between atoms: _565  and  _566
REMARK  228  A    between atoms: _568  and  _570
REMARK  229  A    between atoms: _570  and  _571
REMARK  230  A    between atoms: _570  and  _573
REMARK  231  A    between atoms: _573  and  _574
REMARK  232  A    between atoms: _579  and  _580
REMARK  233  A    between atoms: _582  and  _584
REMARK  234  A    between atoms: _584  and  _585
REMARK  235  A    between atoms: _588  and  _590
REMARK  236  A    between atoms: _590  and  _591
REMARK  237  A    between atoms: _590  and  _593
REMARK  238  A    between atoms: _593  and  _594
REMARK  239  A    between atoms: _594  and  _595
REMARK  240  A    between atoms: _595  and  _596
REMARK                            x       y       z     vdW  Elec       q    Type
REMARK                         _______ _______ _______ _____ _____    ______ ____
ROOT
ATOM      1  C   ALA A   1      18.351 -13.020  19.958  0.00  0.00    +0.238 C 
ATOM      2  N   SER A   2      17.215 -13.365  19.360  0.00  0.00    -0.296 N 
ATOM      3  H   SER A   2      16.499 -13.915  19.877  0.00  0.00    +0.150 HD
ATOM      4  O   ALA A   1      19.270 -12.465  19.340  0.00  0.00    -0.274 OA
ENDROOT
BRANCH   1   5
ATOM      5  CA  ALA A   1      18.489 -13.334  21.448  0.00  0.00    +0.145 C 
ATOM      6  CB  ALA A   1      19.230 -14.667  21.651  0.00  0.00    +0.028 C 
BRANCH   5   7
ATOM      7  N   ALA A   1      17.203 -13.311  22.165  0.00  0.00    -0.238 NA
ATOM      8  H   ALA A   1      16.798 -14.192  22.542  0.00  0.00    +0.142 HD
ENDBRANCH   5   7
ENDBRANCH   1   5
BRANCH   2   9
ATOM      9  CA  SER A   2      16.976 -12.970  17.976  0.00  0.00    +0.166 C 
BRANCH   9  10
ATOM     10  CB  SER A   2      16.977 -11.443  17.844  0.00  0.00    +0.229 C 
ATOM     11  OG  SER A   2      17.640 -10.877  16.967  0.00  0.00    -0.286 OA
ENDBRANCH   9  10
BRANCH   9  12
ATOM     12  C   SER A   2      15.649 -13.545  17.473  0.00  0.00    +0.165 C 
BRANCH  12  13
ATOM     13  O   SER A   2      15.360 -13.064  16.182  0.00  0.00    -0.380 OA
ATOM     14  H   SER A   2      16.083 -13.333  15.561  0.00  0.00    +0.211 HD
ENDBRANCH  12  13
ENDBRANCH   9  12
ENDBRANCH   2   9
TORSDOF 6
REMARK  Name = ../refined-set-2016/4cg8/4cg8_pocket.pdb
REMARK  240 active torsions:
REMARK  status: ('A' for Active; 'I' for Inactive)
REMARK    1  A    between atoms: _1  and  _3
REMARK    2  A    between atoms: _3  and  _4
REMARK    3  A    between atoms: _3  and  _6
REMARK    4  A    between atoms: _6  and  _7
REMARK    5  A    between atoms: _7  and  _8
REMARK    6  A    between atoms: _8  and  _9
REMARK    7  A    between atoms: _18  and  _20
REMARK    8  A    between atoms: _20  and  _21
REMARK    9  A    between atoms: _20  and  _23
REMARK   10  A    between atoms: _23  and  _24
REMARK   11  A    between atoms: _26  and  _28
REMARK   12  A    between atoms: _28  and  _29
REMARK   13  A    between atoms: _28  and  _31
REMARK   14  A    between atoms: _31  and  _32
REMARK   15  A    between atoms: _37  and  _39
REMARK   16  A    between atoms: _39  and  _40
REMARK   17  A    between atoms: _39  and  _42
REMARK   18  A    between atoms: _42  and  _43
REMARK   19  A    between atoms: _46  and  _48
REMARK   20  A    between atoms: _48  and  _49
REMARK   21  A    between atoms: _48  and  _51
REMARK   22  A    between atoms: _51  and  _52
REMARK   23  A    between atoms: _62  and  _64
REMARK   24  A    between atoms: _64  and  _65
REMARK   25  A    between atoms: _64  and  _67
REMARK   26  A    between atoms: _67  and  _68
REMARK   27  A    between atoms: _71  and  _73
REMARK   28  A    between atoms: _73  and  _74
REMARK   29  A    between atoms: _76  and  _78
REMARK   30  A    between atoms: _78  and  _79
REMARK   31  A    between atoms: _78  and  _81
REMARK   32  A    between atoms: _81  and  _82
REMARK   33  A    between atoms: _85  and  _87
REMARK   34  A    between atoms: _87  and  _88
REMARK   35  A    between atoms: _87  and  _90
REMARK   36  A    between atoms: _90  and  _91
REMARK   37  A    between atoms: _91  and  _92
REMARK   38  A    between atoms: _94  and  _96
REMARK   39  A    between atoms: _96  and  _97
REMARK   40  A    between atoms: _96  and  _99
REMARK   41  A    between atoms: _99  and  _100
REMARK   42  A    between atoms: _100  and  _101
REMARK   43  A    between atoms: _104  and  _106
REMARK   44  A    between atoms: _106  and  _107
REMARK   45  A    between atoms: _106  and  _109
REMARK   46  A    between atoms: _109  and  _110
REMARK   47  A    between atoms: _110  and  _111
REMARK   48  A    between atoms: _111  and  _112
REMARK   49  A    between atoms: _112  and  _113
REMARK   50  A    between atoms: _117  and  _119
REMARK   51  A    between atoms: _119  and  _120
REMARK   52  A    between atoms: _119  and  _122
REMARK   53  A    between atoms: _122  and  _123
REMARK   54  A    between atoms: _128  and  _129
REMARK   55  A    between atoms: _131  and  _133
REMARK   56  A    between atoms: _133  and  _134
REMARK   57  A    between atoms: _133  and  _136
REMARK   58  A    between atoms: _136  and  _137
REMARK   59  A    between atoms: _140  and  _142
REMARK   60  A    between atoms: _142  and  _143
REMARK   61  A    between atoms: _142  and  _145
REMARK   62  A    between atoms: _145  and  _146
REMARK   63  A    between atoms: _151  and  _153
REMARK   64  A    between atoms: _153  and  _154
REMARK   65  A    between atoms: _153  and  _156
REMARK   66  A    between atoms: _156  and  _157
REMARK   67  A    between atoms: _162  and  _164
REMARK   68  A    between atoms: _164  and  _165
REMARK   69  A    between atoms: _164  and  _167
REMARK   70  A    between atoms: _167  and  _168
REMARK   71  A    between atoms: _171  and  _173
REMARK   72  A    between atoms: _173  and  _174
REMARK   73  A    between atoms: _173  and  _176
REMARK   74  A    between atoms: _178  and  _180
REMARK   75  A    between atoms: _180  and  _181
REMARK   76  A    between atoms: _180  and  _183
REMARK   77  A    between atoms: _183  and  _184
REMARK   78  A    between atoms: _184  and  _185
REMARK   79  A    between atoms: _190  and  _192
REMARK   80  A    between atoms: _192  and  _193
REMARK   81  A    between atoms: _192  and  _195
REMARK   82  A    between atoms: _195  and  _196
REMARK   83  A    between atoms: _196  and  _197
REMARK   84  A    between atoms: _200  and  _202
REMARK   85  A    between atoms: _202  and  _203
REMARK   86  A    between atoms: _205  and  _207
REMARK   87  A    between atoms: _207  and  _208
REMARK   88  A    between atoms: _207  and  _210
REMARK   89  A    between atoms: _210  and  _211
REMARK   90  A    between atoms: _216  and  _218
REMARK   91  A    between atoms: _218  and  _219
REMARK   92  A    between atoms: _218  and  _221
REMARK   93  A    between atoms: _221  and  _222
REMARK   94  A    between atoms: _225  and  _227
REMARK   95  A    between atoms: _227  and  _228
REMARK   96  A    between atoms: _227  and  _230
REMARK   97  A    between atoms: _230  and  _231
REMARK   98  A    between atoms: _231  and  _232
REMARK   99  A    between atoms: _235  and  _237
REMARK  100  A    between atoms: _237  and  _238
REMARK  101  A    between atoms: _237  and  _240
REMARK  102  A    between atoms: _240  and  _241
REMARK  103  A    between atoms: _246  and  _247
REMARK  104  A    between atoms: _249  and  _251
REMARK  105  A    between atoms: _251  and  _252
REMARK  106  A    between atoms: _251  and  _254
REMARK  107  A    between atoms: _254  and  _255
REMARK  108  A    between atoms: _257  and  _259
REMARK  109  A    between atoms: _259  and  _260
REMARK  110  A    between atoms: _259  and  _262
REMARK  111  A    between atoms: _262  and  _263
REMARK  112  A    between atoms: _268  and  _270
REMARK  113  A    between atoms: _270  and  _271
REMARK  114  A    between atoms: _270  and  _273
REMARK  115  A    between atoms: _273  and  _274
REMARK  116  A    between atoms: _280  and  _282
REMARK  117  A    between atoms: _282  and  _283
REMARK  118  A    between atoms: _282  and  _285
REMARK  119  A    between atoms: _285  and  _286
REMARK  120  A    between atoms: _291  and  _293
REMARK  121  A    between atoms: _293  and  _294
REMARK  122  A    between atoms: _293  and  _296
REMARK  123  A    between atoms: _296  and  _297
REMARK  124  A    between atoms: _297  and  _298
REMARK  125  A    between atoms: _301  and  _303
REMARK  126  A    between atoms: _303  and  _304
REMARK  127  A    between atoms: _303  and  _306
REMARK  128  A    between atoms: _306  and  _307
REMARK  129  A    between atoms: _312  and  _313
REMARK  130  A    between atoms: _315  and  _317
REMARK  131  A    between atoms: _317  and  _318
REMARK  132  A    between atoms: _317  and  _320
REMARK  133  A    between atoms: _320  and  _321
REMARK  134  A    between atoms: _324  and  _326
REMARK  135  A    between atoms: _326  and  _327
REMARK  136  A    between atoms: _326  and  _329
REMARK  137  A    between atoms: _329  and  _330
REMARK  138  A    between atoms: _335  and  _336
REMARK  139  A    between atoms: _338  and  _340
REMARK  140  A    between atoms: _340  and  _341
REMARK  141  A    between atoms: _340  and  _343
REMARK  142  A    between atoms: _343  and  _344
REMARK  143  A    between atoms: _346  and  _348
REMARK  144  A    between atoms: _348  and  _349
REMARK  145  A    between atoms: _348  and  _351
REMARK  146  A    between atoms: _351  and  _352
REMARK  147  A    between atoms: _357  and  _358
REMARK  148  A    between atoms: _360  and  _362
REMARK  149  A    between atoms: _362  and  _363
REMARK  150  A    between atoms: _362  and  _365
REMARK  151  A    between atoms: _365  and  _366
REMARK  152  A    between atoms: _372  and  _374
REMARK  153  A    between atoms: _374  and  _375
REMARK  154  A    between atoms: _374  and  _377
REMARK  155  A    between atoms: _377  and  _378
REMARK  156  A    between atoms: _384  and  _386
REMARK  157  A    between atoms: _386  and  _387
REMARK  158  A    between atoms: _390  and  _392
REMARK  159  A    between atoms: _392  and  _393
REMARK  160  A    between atoms: _392  and  _395
REMARK  161  A    between atoms: _395  and  _396
REMARK  162  A    between atoms: _398  and  _400
REMARK  163  A    between atoms: _400  and  _401
REMARK  164  A    between atoms: _400  and  _403
REMARK  165  A    between atoms: _403  and  _404
REMARK  166  A    between atoms: _410  and  _412
REMARK  167  A    between atoms: _412  and  _413
REMARK  168  A    between atoms: _412  and  _415
REMARK  169  A    between atoms: _415  and  _416
REMARK  170  A    between atoms: _419  and  _421
REMARK  171  A    between atoms: _421  and  _422
REMARK  172  A    between atoms: _421  and  _424
REMARK  173  A    between atoms: _424  and  _425
REMARK  174  A    between atoms: _435  and  _437
REMARK  175  A    between atoms: _437  and  _438
REMARK  176  A    between atoms: _440  and  _442
REMARK  177  A    between atoms: _442  and  _443
REMARK  178  A    between atoms: _442  and  _445
REMARK  179  A    between atoms: _445  and  _446
REMARK  180  A    between atoms: _449  and  _451
REMARK  181  A    between atoms: _451  and  _452
REMARK  182  A    between atoms: _451  and  _454
REMARK  183  A    between atoms: _454  and  _455
REMARK  184  A    between atoms: _465  and  _467
REMARK  185  A    between atoms: _467  and  _468
REMARK  186  A    between atoms: _467  and  _470
REMARK  187  A    between atoms: _470  and  _471
REMARK  188  A    between atoms: _473  and  _475
REMARK  189  A    between atoms: _475  and  _476
REMARK  190  A    between atoms: _475  and  _478
REMARK  191  A    between atoms: _478  and  _479
REMARK  192  A    between atoms: _482  and  _484
REMARK  193  A    between atoms: _484  and  _485
REMARK  194  A    between atoms: _484  and  _487
REMARK  195  A    between atoms: _490  and  _492
REMARK  196  A    between atoms: _492  and  _493
REMARK  197  A    between atoms: _492  and  _495
REMARK  198  A    between atoms: _495  and  _496
REMARK  199  A    between atoms: _496  and  _497
REMARK  200  A    between atoms: _502  and  _504
REMARK  201  A    between atoms: _504  and  _505
REMARK  202  A    between atoms: _504  and  _507
REMARK  203  A    between atoms: _507  and  _508
REMARK  204  A    between atoms: _510  and  _512
REMARK  205  A    between atoms: _512  and  _513
REMARK  206  A    between atoms: _512  and  _515
REMARK  207  A    between atoms: _515  and  _516
REMARK  208  A    between atoms: _518  and  _520
REMARK  209  A    between atoms: _520  and  _521
REMARK  210  A    between atoms: _520  and  _523
REMARK  211  A    between atoms: _523  and  _524
REMARK  212  A    between atoms: _527  and  _529
REMARK  213  A    between atoms: _529  and  _530
REMARK  214  A    between atoms: _529  and  _532
REMARK  215  A    between atoms: _532  and  _533
REMARK  216  A    between atoms: _533  and  _534
REMARK  217  A    between atoms: _537  and  _539
REMARK  218  A    between atoms: _539  and  _540
REMARK  219  A    between atoms: _539  and  _542
REMARK  220  A    between atoms: _542  and  _543
REMARK  221  A    between atoms: _549  and  _551
REMARK  222  A    between atoms: _551  and  _552
REMARK  223  A    between atoms: _554  and  _556
REMARK  224  A    between atoms: _556  and  _557
REMARK  225  A    between atoms: _556  and  _559
REMARK  226  A    between atoms: _559  and  _560
REMARK  227  A    between atoms: _565  and  _566
REMARK  228  A    between atoms: _568  and  _570
REMARK  229  A    between atoms: _570  and  _571
REMARK  230  A    between atoms: _570  and  _573
REMARK  231  A    between atoms: _573  and  _574
REMARK  232  A    between atoms: _579  and  _580
REMARK  233  A    between atoms: _582  and  _584
REMARK  234  A    between atoms: _584  and  _585
REMARK  235  A    between atoms: _588  and  _590
REMARK  236  A    between atoms: _590  and  _591
REMARK  237  A    between atoms: _590  and  _593
REMARK  238  A    between atoms: _593  and  _594
REMARK  239  A    between atoms: _594  and  _595
REMARK  240  A    between atoms: _595  and  _596
REMARK                            x       y       z     vdW  Elec       q    Type
REMARK                         _______ _______ _______ _____ _____    ______ ____
ROOT
ATOM      1  C   LEU A   5      24.043  -5.657  15.101  0.00  0.00    +0.241 C 
ATOM      2  O   LEU A   5      24.734  -4.781  14.580  0.00  0.00    -0.273 OA
ATOM      3  N   TRP A   6      23.632  -6.738  14.433  0.00  0.00    -0.297 N 
ATOM      4  H   TRP A   6      23.118  -7.490  14.934  0.00  0.00    +0.150 HD
ENDROOT
BRANCH   3   5
ATOM      5  CA  TRP A   6      23.901  -6.872  12.994  0.00  0.00    +0.153 C 
BRANCH   5   6
ATOM      6  C   TRP A   6      23.521  -5.638  12.201  0.00  0.00    +0.241 C 
ATOM      7  N   SER A   7      22.350  -5.078  12.483  0.00  0.00    -0.295 N 
ATOM      8  H   SER A   7      21.793  -5.448  13.279  0.00  0.00    +0.150 HD
ATOM      9  O   TRP A   6      24.275  -5.178  11.332  0.00  0.00    -0.273 OA
BRANCH   7  10
ATOM     10  CA  SER A   7      21.823  -3.963  11.712  0.00  0.00    +0.178 C 
BRANCH  10  11
ATOM     11  C   SER A   7      22.651  -2.702  11.909  0.00  0.00    +0.243 C 
ATOM     12  N   ILE A   8      23.121  -2.471  13.142  0.00  0.00    -0.297 N 
ATOM     13  H   ILE A   8      22.863  -3.112  13.919  0.00  0.00    +0.150 HD
ATOM     14  O   SER A   7      22.865  -1.961  10.947  0.00  0.00    -0.273 OA
BRANCH  12  15
ATOM     15  CA  ILE A   8      24.006  -1.311  13.413  0.00  0.00    +0.149 C 
BRANCH  15  16
ATOM     16  C   ILE A   8      25.299  -1.414  12.603  0.00  0.00    +0.241 C 
ATOM     17  N   VAL A   9      25.875  -2.621  12.549  0.00  0.00    -0.297 N 
ATOM     18  H   VAL A   9      25.453  -3.411  13.078  0.00  0.00    +0.150 HD
ATOM     19  O   ILE A   8      25.766  -0.418  12.025  0.00  0.00    -0.273 OA
BRANCH  17  20
ATOM     20  CA  VAL A   9      27.087  -2.853  11.761  0.00  0.00    +0.149 C 
BRANCH  20  21
ATOM     21  C   VAL A   9      26.814  -2.599  10.269  0.00  0.00    +0.241 C 
ATOM     22  N   GLN A  10      25.685  -3.093   9.764  0.00  0.00    -0.298 N 
ATOM     23  H   GLN A  10      25.070  -3.685  10.358  0.00  0.00    +0.150 HD
ATOM     24  O   VAL A   9      27.611  -1.942   9.597  0.00  0.00    -0.273 OA
BRANCH  22  25
ATOM     25  CA  GLN A  10      25.299  -2.806   8.366  0.00  0.00    +0.137 C 
BRANCH  25  26
ATOM     26  C   GLN A  10      25.191  -1.317   8.034  0.00  0.00    +0.227 C 
ATOM     27  O   GLN A  10      25.553  -0.908   6.937  0.00  0.00    -0.286 OA
ENDBRANCH  25  26
BRANCH  25  28
ATOM     28  CB  GLN A  10      23.986  -3.487   7.981  0.00  0.00    +0.037 C 
BRANCH  28  29
ATOM     29  CG  GLN A  10      23.987  -4.998   8.082  0.00  0.00    +0.087 C 
BRANCH  29  30
ATOM     30  CD  GLN A  10      25.297  -5.611   7.676  0.00  0.00    +0.219 C 
ATOM     31  NE2 GLN A  10      25.986  -6.221   8.634  0.00  0.00    -0.329 N 
ATOM     32 HE21 GLN A  10      25.602  -6.270   9.599  0.00  0.00    +0.145 HD
ATOM     33 HE22 GLN A  10      26.909  -6.649   8.419  0.00  0.00    +0.145 HD
ATOM     34  OE1 GLN A  10      25.698  -5.521   6.519  0.00  0.00    -0.275 OA
ENDBRANCH  29  30
ENDBRANCH  28  29
ENDBRANCH  25  28
ENDBRANCH  22  25
ENDBRANCH  20  21
BRANCH  20  35
ATOM     35  CB  VAL A   9      27.669  -4.256  12.005  0.00  0.00    +0.027 C 
ATOM     36  CG2 VAL A   9      28.155  -4.382  13.446  0.00  0.00    +0.002 C 
ATOM     37  CG1 VAL A   9      28.807  -4.557  11.034  0.00  0.00    +0.002 C 
ENDBRANCH  20  35
ENDBRANCH  17  20
ENDBRANCH  15  16
BRANCH  15  38
ATOM     38  CB  ILE A   8      24.364  -1.163  14.909  0.00  0.00    +0.027 C 
ATOM     39  CG2 ILE A   8      25.361   0.001  15.083  0.00  0.00    +0.002 C 
BRANCH  38  40
ATOM     40  CG1 ILE A   8      23.102  -0.955  15.744  0.00  0.00    +0.002 C 
ATOM     41  CD1 ILE A   8      23.339  -1.140  17.234  0.00  0.00    +0.000 C 
ENDBRANCH  38  40
ENDBRANCH  15  38
ENDBRANCH  12  15
ENDBRANCH  10  11
BRANCH  10  42
ATOM     42  CB  SER A   7      20.347  -3.714  12.055  0.00  0.00    +0.166 C 
BRANCH  42  43
ATOM     43  OG  SER A   7      19.697  -2.998  11.016  0.00  0.00    -0.380 OA
ATOM     44  H   SER A   7      20.145  -2.125  10.888  0.00  0.00    +0.211 HD
ENDBRANCH  42  43
ENDBRANCH  10  42
ENDBRANCH   7  10
ENDBRANCH   5   6
BRANCH   5  45
ATOM     45  CB  TRP A   6      23.160  -8.108  12.456  0.00  0.00    +0.057 C 
BRANCH  45  46
ATOM     46  CG  TRP A   6      23.278  -8.306  10.952  0.00  0.00    -0.002 A 
ATOM     47  CD1 TRP A   6      24.237  -9.038  10.267  0.00  0.00    +0.068 A 
ATOM     48  NE1 TRP A   6      24.008  -8.995   8.905  0.00  0.00    -0.352 N 
ATOM     49  CE2 TRP A   6      22.886  -8.281   8.639  0.00  0.00    +0.056 A 
ATOM     50  CZ2 TRP A   6      22.261  -7.975   7.439  0.00  0.00    +0.017 A 
ATOM     51  CH2 TRP A   6      21.105  -7.186   7.501  0.00  0.00    +0.001 A 
ATOM     52  CZ3 TRP A   6      20.583  -6.721   8.721  0.00  0.00    +0.000 A 
ATOM     53  CE3 TRP A   6      21.212  -7.022   9.946  0.00  0.00    +0.001 A 
ATOM     54  HE1 TRP A   6      24.610  -9.446   8.187  0.00  0.00    +0.166 HD
ATOM     55  CD2 TRP A   6      22.368  -7.799   9.928  0.00  0.00    +0.013 A 
ENDBRANCH  45  46
ENDBRANCH   5  45
ENDBRANCH   3   5
BRANCH   1  56
ATOM     56  CA  LEU A   5      23.626  -5.549  16.563  0.00  0.00    +0.149 C 
BRANCH  56  58
ATOM     57  C   GLY A   4      21.273  -5.011  16.143  0.00  0.00    +0.243 C 
ATOM     58  N   LEU A   5      22.182  -5.795  16.726  0.00  0.00    -0.297 N 
ATOM     59  H   LEU A   5      21.865  -6.597  17.308  0.00  0.00    +0.150 HD
ATOM     60  O   GLY A   4      21.572  -4.006  15.479  0.00  0.00    -0.273 OA
BRANCH  57  61
ATOM     61  CA  GLY A   4      19.811  -5.414  16.313  0.00  0.00    +0.176 C 
BRANCH  61  63
ATOM     62  C   TRP A   3      19.913  -7.321  14.788  0.00  0.00    +0.241 C 
ATOM     63  N   GLY A   4      19.636  -6.838  16.006  0.00  0.00    -0.295 N 
ATOM     64  H   GLY A   4      19.291  -7.482  16.746  0.00  0.00    +0.150 HD
ATOM     65  O   TRP A   3      20.285  -6.604  13.838  0.00  0.00    -0.273 OA
BRANCH  62  66
ATOM     66  CA  TRP A   3      19.762  -8.812  14.598  0.00  0.00    +0.153 C 
BRANCH  66  68
ATOM     67  C   LEU A   2      21.337  -9.577  16.272  0.00  0.00    +0.241 C 
ATOM     68  N   TRP A   3      20.096  -9.561  15.802  0.00  0.00    -0.297 N 
ATOM     69  H   TRP A   3      19.352 -10.090  16.300  0.00  0.00    +0.150 HD
ATOM     70  O   LEU A   2      22.248  -8.965  15.731  0.00  0.00    -0.273 OA
BRANCH  67  71
ATOM     71  CA  LEU A   2      21.605 -10.430  17.525  0.00  0.00    +0.149 C 
BRANCH  71  74
ATOM     72  C   PHE A   1      20.638  -8.887  19.149  0.00  0.00    +0.239 C 
ATOM     73  O   PHE A   1      21.322  -7.948  18.711  0.00  0.00    -0.274 OA
ATOM     74  N   LEU A   2      20.684 -10.116  18.620  0.00  0.00    -0.297 N 
ATOM     75  H   LEU A   2      20.057 -10.858  18.992  0.00  0.00    +0.150 HD
BRANCH  72  76
ATOM     76  CA  PHE A   1      19.647  -8.670  20.297  0.00  0.00    +0.149 C 
BRANCH  76  77
ATOM     77  N   PHE A   1      18.343  -9.245  19.923  0.00  0.00    -0.238 NA
ATOM     78  H   PHE A   1      17.977 -10.063  20.450  0.00  0.00    +0.142 HD
ENDBRANCH  76  77
BRANCH  76  79
ATOM     79  CB  PHE A   1      20.174  -9.292  21.613  0.00  0.00    +0.053 C 
BRANCH  79  80
ATOM     80  CG  PHE A   1      21.083  -8.383  22.419  0.00  0.00    -0.020 A 
ATOM     81  CD2 PHE A   1      20.696  -7.928  23.683  0.00  0.00    -0.004 A 
ATOM     82  CE2 PHE A   1      21.531  -7.098  24.446  0.00  0.00    -0.000 A 
ATOM     83  CZ  PHE A   1      22.773  -6.727  23.959  0.00  0.00    -0.000 A 
ATOM     84  CE1 PHE A   1      23.168  -7.172  22.705  0.00  0.00    -0.000 A 
ATOM     85  CD1 PHE A   1      22.336  -8.015  21.957  0.00  0.00    -0.004 A 
ENDBRANCH  79  80
ENDBRANCH  76  79
ENDBRANCH  72  76
ENDBRANCH  71  74
BRANCH  71  86
ATOM     86  CB  LEU A   2      21.535 -11.927  17.182  0.00  0.00    +0.029 C 
BRANCH  86  87
ATOM     87  CG  LEU A   2      22.410 -12.378  16.012  0.00  0.00    +0.002 C 
ATOM     88  CD2 LEU A   2      23.803 -12.688  16.517  0.00  0.00    +0.000 C 
ATOM     89  CD1 LEU A   2      21.764 -13.590  15.347  0.00  0.00    +0.000 C 
ENDBRANCH  86  87
ENDBRANCH  71  86
ENDBRANCH  67  71
ENDBRANCH  66  68
BRANCH  66  90
ATOM     90  CB  TRP A   3      18.343  -9.151  14.174  0.00  0.00    +0.057 C 
BRANCH  90  91
ATOM     91  CG  TRP A   3      18.255 -10.424  13.366  0.00  0.00    -0.002 A 
ATOM     92  CD1 TRP A   3      17.754 -11.673  13.772  0.00  0.00    +0.068 A 
ATOM     93  NE1 TRP A   3      17.811 -12.583  12.730  0.00  0.00    -0.352 N 
ATOM     94  HE1 TRP A   3      17.508 -13.576  12.791  0.00  0.00    +0.166 HD
ATOM     95  CE2 TRP A   3      18.326 -11.986  11.603  0.00  0.00    +0.056 A 
ATOM     96  CZ2 TRP A   3      18.551 -12.491  10.309  0.00  0.00    +0.017 A 
ATOM     97  CH2 TRP A   3      19.107 -11.607   9.370  0.00  0.00    +0.001 A 
ATOM     98  CZ3 TRP A   3      19.408 -10.267   9.691  0.00  0.00    +0.000 A 
ATOM     99  CE3 TRP A   3      19.175  -9.743  10.973  0.00  0.00    +0.001 A 
ATOM    100  CD2 TRP A   3      18.625 -10.589  11.952  0.00  0.00    +0.013 A 
ENDBRANCH  90  91
ENDBRANCH  66  90
ENDBRANCH  62  66
ENDBRANCH  61  63
ENDBRANCH  57  61
ENDBRANCH  56  58
BRANCH  56 101
ATOM    101  CB  LEU A   5      24.460  -6.532  17.397  0.00  0.00    +0.029 C 
BRANCH 101 102
ATOM    102  CG  LEU A   5      24.323  -6.453  18.919  0.00  0.00    +0.002 C 
ATOM    103  CD2 LEU A   5      25.008  -7.665  19.550  0.00  0.00    +0.000 C 
ATOM    104  CD1 LEU A   5      24.924  -5.161  19.466  0.00  0.00    +0.000 C 
ENDBRANCH 101 102
ENDBRANCH  56 101
ENDBRANCH   1  56
TORSDOF 38
REMARK  Name = ../refined-set-2016/4cg8/4cg8_pocket.pdb
REMARK  240 active torsions:
REMARK  status: ('A' for Active; 'I' for Inactive)
REMARK    1  A    between atoms: _1  and  _3
REMARK    2  A    between atoms: _3  and  _4
REMARK    3  A    between atoms: _3  and  _6
REMARK    4  A    between atoms: _6  and  _7
REMARK    5  A    between atoms: _7  and  _8
REMARK    6  A    between atoms: _8  and  _9
REMARK    7  A    between atoms: _18  and  _20
REMARK    8  A    between atoms: _20  and  _21
REMARK    9  A    between atoms: _20  and  _23
REMARK   10  A    between atoms: _23  and  _24
REMARK   11  A    between atoms: _26  and  _28
REMARK   12  A    between atoms: _28  and  _29
REMARK   13  A    between atoms: _28  and  _31
REMARK   14  A    between atoms: _31  and  _32
REMARK   15  A    between atoms: _37  and  _39
REMARK   16  A    between atoms: _39  and  _40
REMARK   17  A    between atoms: _39  and  _42
REMARK   18  A    between atoms: _42  and  _43
REMARK   19  A    between atoms: _46  and  _48
REMARK   20  A    between atoms: _48  and  _49
REMARK   21  A    between atoms: _48  and  _51
REMARK   22  A    between atoms: _51  and  _52
REMARK   23  A    between atoms: _62  and  _64
REMARK   24  A    between atoms: _64  and  _65
REMARK   25  A    between atoms: _64  and  _67
REMARK   26  A    between atoms: _67  and  _68
REMARK   27  A    between atoms: _71  and  _73
REMARK   28  A    between atoms: _73  and  _74
REMARK   29  A    between atoms: _76  and  _78
REMARK   30  A    between atoms: _78  and  _79
REMARK   31  A    between atoms: _78  and  _81
REMARK   32  A    between atoms: _81  and  _82
REMARK   33  A    between atoms: _85  and  _87
REMARK   34  A    between atoms: _87  and  _88
REMARK   35  A    between atoms: _87  and  _90
REMARK   36  A    between atoms: _90  and  _91
REMARK   37  A    between atoms: _91  and  _92
REMARK   38  A    between atoms: _94  and  _96
REMARK   39  A    between atoms: _96  and  _97
REMARK   40  A    between atoms: _96  and  _99
REMARK   41  A    between atoms: _99  and  _100
REMARK   42  A    between atoms: _100  and  _101
REMARK   43  A    between atoms: _104  and  _106
REMARK   44  A    between atoms: _106  and  _107
REMARK   45  A    between atoms: _106  and  _109
REMARK   46  A    between atoms: _109  and  _110
REMARK   47  A    between atoms: _110  and  _111
REMARK   48  A    between atoms: _111  and  _112
REMARK   49  A    between atoms: _112  and  _113
REMARK   50  A    between atoms: _117  and  _119
REMARK   51  A    between atoms: _119  and  _120
REMARK   52  A    between atoms: _119  and  _122
REMARK   53  A    between atoms: _122  and  _123
REMARK   54  A    between atoms: _128  and  _129
REMARK   55  A    between atoms: _131  and  _133
REMARK   56  A    between atoms: _133  and  _134
REMARK   57  A    between atoms: _133  and  _136
REMARK   58  A    between atoms: _136  and  _137
REMARK   59  A    between atoms: _140  and  _142
REMARK   60  A    between atoms: _142  and  _143
REMARK   61  A    between atoms: _142  and  _145
REMARK   62  A    between atoms: _145  and  _146
REMARK   63  A    between atoms: _151  and  _153
REMARK   64  A    between atoms: _153  and  _154
REMARK   65  A    between atoms: _153  and  _156
REMARK   66  A    between atoms: _156  and  _157
REMARK   67  A    between atoms: _162  and  _164
REMARK   68  A    between atoms: _164  and  _165
REMARK   69  A    between atoms: _164  and  _167
REMARK   70  A    between atoms: _167  and  _168
REMARK   71  A    between atoms: _171  and  _173
REMARK   72  A    between atoms: _173  and  _174
REMARK   73  A    between atoms: _173  and  _176
REMARK   74  A    between atoms: _178  and  _180
REMARK   75  A    between atoms: _180  and  _181
REMARK   76  A    between atoms: _180  and  _183
REMARK   77  A    between atoms: _183  and  _184
REMARK   78  A    between atoms: _184  and  _185
REMARK   79  A    between atoms: _190  and  _192
REMARK   80  A    between atoms: _192  and  _193
REMARK   81  A    between atoms: _192  and  _195
REMARK   82  A    between atoms: _195  and  _196
REMARK   83  A    between atoms: _196  and  _197
REMARK   84  A    between atoms: _200  and  _202
REMARK   85  A    between atoms: _202  and  _203
REMARK   86  A    between atoms: _205  and  _207
REMARK   87  A    between atoms: _207  and  _208
REMARK   88  A    between atoms: _207  and  _210
REMARK   89  A    between atoms: _210  and  _211
REMARK   90  A    between atoms: _216  and  _218
REMARK   91  A    between atoms: _218  and  _219
REMARK   92  A    between atoms: _218  and  _221
REMARK   93  A    between atoms: _221  and  _222
REMARK   94  A    between atoms: _225  and  _227
REMARK   95  A    between atoms: _227  and  _228
REMARK   96  A    between atoms: _227  and  _230
REMARK   97  A    between atoms: _230  and  _231
REMARK   98  A    between atoms: _231  and  _232
REMARK   99  A    between atoms: _235  and  _237
REMARK  100  A    between atoms: _237  and  _238
REMARK  101  A    between atoms: _237  and  _240
REMARK  102  A    between atoms: _240  and  _241
REMARK  103  A    between atoms: _246  and  _247
REMARK  104  A    between atoms: _249  and  _251
REMARK  105  A    between atoms: _251  and  _252
REMARK  106  A    between atoms: _251  and  _254
REMARK  107  A    between atoms: _254  and  _255
REMARK  108  A    between atoms: _257  and  _259
REMARK  109  A    between atoms: _259  and  _260
REMARK  110  A    between atoms: _259  and  _262
REMARK  111  A    between atoms: _262  and  _263
REMARK  112  A    between atoms: _268  and  _270
REMARK  113  A    between atoms: _270  and  _271
REMARK  114  A    between atoms: _270  and  _273
REMARK  115  A    between atoms: _273  and  _274
REMARK  116  A    between atoms: _280  and  _282
REMARK  117  A    between atoms: _282  and  _283
REMARK  118  A    between atoms: _282  and  _285
REMARK  119  A    between atoms: _285  and  _286
REMARK  120  A    between atoms: _291  and  _293
REMARK  121  A    between atoms: _293  and  _294
REMARK  122  A    between atoms: _293  and  _296
REMARK  123  A    between atoms: _296  and  _297
REMARK  124  A    between atoms: _297  and  _298
REMARK  125  A    between atoms: _301  and  _303
REMARK  126  A    between atoms: _303  and  _304
REMARK  127  A    between atoms: _303  and  _306
REMARK  128  A    between atoms: _306  and  _307
REMARK  129  A    between atoms: _312  and  _313
REMARK  130  A    between atoms: _315  and  _317
REMARK  131  A    between atoms: _317  and  _318
REMARK  132  A    between atoms: _317  and  _320
REMARK  133  A    between atoms: _320  and  _321
REMARK  134  A    between atoms: _324  and  _326
REMARK  135  A    between atoms: _326  and  _327
REMARK  136  A    between atoms: _326  and  _329
REMARK  137  A    between atoms: _329  and  _330
REMARK  138  A    between atoms: _335  and  _336
REMARK  139  A    between atoms: _338  and  _340
REMARK  140  A    between atoms: _340  and  _341
REMARK  141  A    between atoms: _340  and  _343
REMARK  142  A    between atoms: _343  and  _344
REMARK  143  A    between atoms: _346  and  _348
REMARK  144  A    between atoms: _348  and  _349
REMARK  145  A    between atoms: _348  and  _351
REMARK  146  A    between atoms: _351  and  _352
REMARK  147  A    between atoms: _357  and  _358
REMARK  148  A    between atoms: _360  and  _362
REMARK  149  A    between atoms: _362  and  _363
REMARK  150  A    between atoms: _362  and  _365
REMARK  151  A    between atoms: _365  and  _366
REMARK  152  A    between atoms: _372  and  _374
REMARK  153  A    between atoms: _374  and  _375
REMARK  154  A    between atoms: _374  and  _377
REMARK  155  A    between atoms: _377  and  _378
REMARK  156  A    between atoms: _384  and  _386
REMARK  157  A    between atoms: _386  and  _387
REMARK  158  A    between atoms: _390  and  _392
REMARK  159  A    between atoms: _392  and  _393
REMARK  160  A    between atoms: _392  and  _395
REMARK  161  A    between atoms: _395  and  _396
REMARK  162  A    between atoms: _398  and  _400
REMARK  163  A    between atoms: _400  and  _401
REMARK  164  A    between atoms: _400  and  _403
REMARK  165  A    between atoms: _403  and  _404
REMARK  166  A    between atoms: _410  and  _412
REMARK  167  A    between atoms: _412  and  _413
REMARK  168  A    between atoms: _412  and  _415
REMARK  169  A    between atoms: _415  and  _416
REMARK  170  A    between atoms: _419  and  _421
REMARK  171  A    between atoms: _421  and  _422
REMARK  172  A    between atoms: _421  and  _424
REMARK  173  A    between atoms: _424  and  _425
REMARK  174  A    between atoms: _435  and  _437
REMARK  175  A    between atoms: _437  and  _438
REMARK  176  A    between atoms: _440  and  _442
REMARK  177  A    between atoms: _442  and  _443
REMARK  178  A    between atoms: _442  and  _445
REMARK  179  A    between atoms: _445  and  _446
REMARK  180  A    between atoms: _449  and  _451
REMARK  181  A    between atoms: _451  and  _452
REMARK  182  A    between atoms: _451  and  _454
REMARK  183  A    between atoms: _454  and  _455
REMARK  184  A    between atoms: _465  and  _467
REMARK  185  A    between atoms: _467  and  _468
REMARK  186  A    between atoms: _467  and  _470
REMARK  187  A    between atoms: _470  and  _471
REMARK  188  A    between atoms: _473  and  _475
REMARK  189  A    between atoms: _475  and  _476
REMARK  190  A    between atoms: _475  and  _478
REMARK  191  A    between atoms: _478  and  _479
REMARK  192  A    between atoms: _482  and  _484
REMARK  193  A    between atoms: _484  and  _485
REMARK  194  A    between atoms: _484  and  _487
REMARK  195  A    between atoms: _490  and  _492
REMARK  196  A    between atoms: _492  and  _493
REMARK  197  A    between atoms: _492  and  _495
REMARK  198  A    between atoms: _495  and  _496
REMARK  199  A    between atoms: _496  and  _497
REMARK  200  A    between atoms: _502  and  _504
REMARK  201  A    between atoms: _504  and  _505
REMARK  202  A    between atoms: _504  and  _507
REMARK  203  A    between atoms: _507  and  _508
REMARK  204  A    between atoms: _510  and  _512
REMARK  205  A    between atoms: _512  and  _513
REMARK  206  A    between atoms: _512  and  _515
REMARK  207  A    between atoms: _515  and  _516
REMARK  208  A    between atoms: _518  and  _520
REMARK  209  A    between atoms: _520  and  _521
REMARK  210  A    between atoms: _520  and  _523
REMARK  211  A    between atoms: _523  and  _524
REMARK  212  A    between atoms: _527  and  _529
REMARK  213  A    between atoms: _529  and  _530
REMARK  214  A    between atoms: _529  and  _532
REMARK  215  A    between atoms: _532  and  _533
REMARK  216  A    between atoms: _533  and  _534
REMARK  217  A    between atoms: _537  and  _539
REMARK  218  A    between atoms: _539  and  _540
REMARK  219  A    between atoms: _539  and  _542
REMARK  220  A    between atoms: _542  and  _543
REMARK  221  A    between atoms: _549  and  _551
REMARK  222  A    between atoms: _551  and  _552
REMARK  223  A    between atoms: _554  and  _556
REMARK  224  A    between atoms: _556  and  _557
REMARK  225  A    between atoms: _556  and  _559
REMARK  226  A    between atoms: _559  and  _560
REMARK  227  A    between atoms: _565  and  _566
REMARK  228  A    between atoms: _568  and  _570
REMARK  229  A    between atoms: _570  and  _571
REMARK  230  A    between atoms: _570  and  _573
REMARK  231  A    between atoms: _573  and  _574
REMARK  232  A    between atoms: _579  and  _580
REMARK  233  A    between atoms: _582  and  _584
REMARK  234  A    between atoms: _584  and  _585
REMARK  235  A    between atoms: _588  and  _590
REMARK  236  A    between atoms: _590  and  _591
REMARK  237  A    between atoms: _590  and  _593
REMARK  238  A    between atoms: _593  and  _594
REMARK  239  A    between atoms: _594  and  _595
REMARK  240  A    between atoms: _595  and  _596
REMARK                            x       y       z     vdW  Elec       q    Type
REMARK                         _______ _______ _______ _____ _____    ______ ____
ROOT
ATOM      1  CA  GLU A   4      20.225   1.022   0.876  0.00  0.00    +0.149 C 
ENDROOT
BRANCH   1   4
ATOM      2  C   ILE A   3      21.986  -0.718   0.849  0.00  0.00    +0.241 C 
ATOM      3  O   ILE A   3      22.051  -0.792   2.079  0.00  0.00    -0.273 OA
ATOM      4  N   GLU A   4      21.148   0.096   0.206  0.00  0.00    -0.297 N 
ATOM      5  H   GLU A   4      21.148   0.074  -0.834  0.00  0.00    +0.150 HD
BRANCH   2   6
ATOM      6  CA  ILE A   3      22.876  -1.609  -0.031  0.00  0.00    +0.149 C 
BRANCH   6   8
ATOM      7  C   SER A   2      25.216  -0.956  -0.403  0.00  0.00    +0.243 C 
ATOM      8  N   ILE A   3      24.287  -1.528   0.360  0.00  0.00    -0.297 N 
ATOM      9  H   ILE A   3      24.574  -1.935   1.273  0.00  0.00    +0.150 HD
ATOM     10  O   SER A   2      24.965  -0.452  -1.501  0.00  0.00    -0.273 OA
BRANCH   7  11
ATOM     11  CA  SER A   2      26.650  -0.946   0.167  0.00  0.00    +0.178 C 
BRANCH  11  14
ATOM     12  C   SER A   1      26.851  -1.114   2.603  0.00  0.00    +0.241 C 
ATOM     13  O   SER A   1      27.027   0.100   2.730  0.00  0.00    -0.274 OA
ATOM     14  N   SER A   2      26.725  -1.717   1.418  0.00  0.00    -0.295 N 
ATOM     15  H   SER A   2      26.679  -2.755   1.379  0.00  0.00    +0.150 HD
BRANCH  12  16
ATOM     16  CA  SER A   1      26.764  -2.014   3.832  0.00  0.00    +0.174 C 
BRANCH  16  17
ATOM     17  N   SER A   1      27.530  -1.496   4.971  0.00  0.00    -0.236 NA
ATOM     18  H   SER A   1      27.022  -1.077   5.776  0.00  0.00    +0.142 HD
ENDBRANCH  16  17
BRANCH  16  19
ATOM     19  CB  SER A   1      25.289  -2.187   4.203  0.00  0.00    +0.163 C 
BRANCH  19  20
ATOM     20  OG  SER A   1      24.512  -2.585   3.075  0.00  0.00    -0.380 OA
ATOM     21  H   SER A   1      23.566  -2.688   3.347  0.00  0.00    +0.211 HD
ENDBRANCH  19  20
ENDBRANCH  16  19
ENDBRANCH  12  16
ENDBRANCH  11  14
BRANCH  11  22
ATOM     22  CB  SER A   2      27.664  -1.477  -0.854  0.00  0.00    +0.166 C 
BRANCH  22  23
ATOM     23  OG  SER A   2      28.991  -1.447  -0.334  0.00  0.00    -0.380 OA
ATOM     24  H   SER A   2      29.039  -2.010   0.479  0.00  0.00    +0.211 HD
ENDBRANCH  22  23
ENDBRANCH  11  22
ENDBRANCH   7  11
ENDBRANCH   6   8
BRANCH   6  25
ATOM     25  CB  ILE A   3      22.369  -3.071   0.010  0.00  0.00    +0.027 C 
ATOM     26  CG2 ILE A   3      20.915  -3.149  -0.419  0.00  0.00    +0.002 C 
BRANCH  25  27
ATOM     27  CG1 ILE A   3      23.237  -3.969  -0.880  0.00  0.00    +0.002 C 
ATOM     28  CD1 ILE A   3      23.122  -5.448  -0.562  0.00  0.00    +0.000 C 
ENDBRANCH  25  27
ENDBRANCH   6  25
ENDBRANCH   2   6
ENDBRANCH   1   4
BRANCH   1  29
ATOM     29  C   GLU A   4      19.118   0.314   1.674  0.00  0.00    +0.241 C 
ATOM     30  N   PHE A   5      18.985   0.691   2.950  0.00  0.00    -0.297 N 
ATOM     31  H   PHE A   5      19.633   1.419   3.313  0.00  0.00    +0.150 HD
ATOM     32  O   GLU A   4      18.401  -0.530   1.133  0.00  0.00    -0.273 OA
BRANCH  30  33
ATOM     33  CA  PHE A   5      17.979   0.140   3.874  0.00  0.00    +0.153 C 
BRANCH  33  34
ATOM     34  C   PHE A   5      18.040   0.991   5.143  0.00  0.00    +0.241 C 
ATOM     35  N   GLY A   6      16.910   1.133   5.841  0.00  0.00    -0.295 N 
ATOM     36  H   GLY A   6      16.032   0.720   5.466  0.00  0.00    +0.150 HD
ATOM     37  O   PHE A   5      19.112   1.505   5.478  0.00  0.00    -0.273 OA
BRANCH  35  38
ATOM     38  CA  GLY A   6      16.867   1.852   7.119  0.00  0.00    +0.176 C 
BRANCH  38  39
ATOM     39  C   GLY A   6      17.487   1.068   8.271  0.00  0.00    +0.243 C 
ATOM     40  O   GLY A   6      16.791   0.715   9.213  0.00  0.00    -0.273 OA
ATOM     41  N   TYR A   7      18.788   0.793   8.203  0.00  0.00    -0.298 N 
ATOM     42  H   TYR A   7      19.359   1.202   7.436  0.00  0.00    +0.150 HD
BRANCH  41  43
ATOM     43  CA  TYR A   7      19.433  -0.087   9.205  0.00  0.00    +0.141 C 
BRANCH  43  44
ATOM     44  C   TYR A   7      19.338   0.397  10.654  0.00  0.00    +0.227 C 
ATOM     45  O   TYR A   7      19.108  -0.411  11.562  0.00  0.00    -0.286 OA
ENDBRANCH  43  44
BRANCH  43  46
ATOM     46  CB  TYR A   7      20.895  -0.356   8.868  0.00  0.00    +0.054 C 
BRANCH  46  47
ATOM     47  CG  TYR A   7      21.113  -1.103   7.565  0.00  0.00    -0.020 A 
ATOM     48  CD2 TYR A   7      20.764  -2.444   7.435  0.00  0.00    -0.001 A 
ATOM     49  CE2 TYR A   7      20.970  -3.123   6.230  0.00  0.00    +0.036 A 
ATOM     50  CZ  TYR A   7      21.561  -2.454   5.169  0.00  0.00    +0.134 A 
ATOM     51  CE1 TYR A   7      21.921  -1.129   5.286  0.00  0.00    +0.036 A 
ATOM     52  CD1 TYR A   7      21.700  -0.463   6.480  0.00  0.00    -0.001 A 
BRANCH  50  53
ATOM     53  OH  TYR A   7      21.791  -3.084   3.963  0.00  0.00    -0.506 OA
ATOM     54  HH  TYR A   7      22.760  -3.061   3.759  0.00  0.00    +0.292 HD
ENDBRANCH  50  53
ENDBRANCH  46  47
ENDBRANCH  43  46
ENDBRANCH  41  43
ENDBRANCH  38  39
ENDBRANCH  35  38
ENDBRANCH  33  34
BRANCH  33  55
ATOM     55  CB  PHE A   5      18.294  -1.322   4.202  0.00  0.00    +0.055 C 
BRANCH  55  56
ATOM     56  CG  PHE A   5      17.239  -2.009   5.035  0.00  0.00    -0.020 A 
ATOM     57  CD2 PHE A   5      17.440  -2.225   6.392  0.00  0.00    -0.004 A 
ATOM     58  CE2 PHE A   5      16.475  -2.850   7.173  0.00  0.00    -0.000 A 
ATOM     59  CZ  PHE A   5      15.294  -3.279   6.587  0.00  0.00    -0.000 A 
ATOM     60  CE1 PHE A   5      15.094  -3.090   5.228  0.00  0.00    -0.000 A 
ATOM     61  CD1 PHE A   5      16.056  -2.458   4.458  0.00  0.00    -0.004 A 
ENDBRANCH  55  56
ENDBRANCH  33  55
ENDBRANCH  30  33
ENDBRANCH   1  29
BRANCH   1  62
ATOM     62  CB  GLU A   4      19.582   1.943  -0.158  0.00  0.00    +0.041 C 
BRANCH  62  63
ATOM     63  CG  GLU A   4      18.776   3.096   0.432  0.00  0.00    +0.116 C 
BRANCH  63  64
ATOM     64  CD  GLU A   4      18.089   3.938  -0.634  0.00  0.00    +0.365 C 
ATOM     65  OE2 GLU A   4      17.516   4.999  -0.288  0.00  0.00    -0.246 OA
ATOM     66  OE1 GLU A   4      18.121   3.541  -1.822  0.00  0.00    -0.246 OA
ENDBRANCH  63  64
ENDBRANCH  62  63
ENDBRANCH   1  62
TORSDOF 28
REMARK  Name = ../refined-set-2016/4cg8/4cg8_pocket.pdb
REMARK  240 active torsions:
REMARK  status: ('A' for Active; 'I' for Inactive)
REMARK    1  A    between atoms: _1  and  _3
REMARK    2  A    between atoms: _3  and  _4
REMARK    3  A    between atoms: _3  and  _6
REMARK    4  A    between atoms: _6  and  _7
REMARK    5  A    between atoms: _7  and  _8
REMARK    6  A    between atoms: _8  and  _9
REMARK    7  A    between atoms: _18  and  _20
REMARK    8  A    between atoms: _20  and  _21
REMARK    9  A    between atoms: _20  and  _23
REMARK   10  A    between atoms: _23  and  _24
REMARK   11  A    between atoms: _26  and  _28
REMARK   12  A    between atoms: _28  and  _29
REMARK   13  A    between atoms: _28  and  _31
REMARK   14  A    between atoms: _31  and  _32
REMARK   15  A    between atoms: _37  and  _39
REMARK   16  A    between atoms: _39  and  _40
REMARK   17  A    between atoms: _39  and  _42
REMARK   18  A    between atoms: _42  and  _43
REMARK   19  A    between atoms: _46  and  _48
REMARK   20  A    between atoms: _48  and  _49
REMARK   21  A    between atoms: _48  and  _51
REMARK   22  A    between atoms: _51  and  _52
REMARK   23  A    between atoms: _62  and  _64
REMARK   24  A    between atoms: _64  and  _65
REMARK   25  A    between atoms: _64  and  _67
REMARK   26  A    between atoms: _67  and  _68
REMARK   27  A    between atoms: _71  and  _73
REMARK   28  A    between atoms: _73  and  _74
REMARK   29  A    between atoms: _76  and  _78
REMARK   30  A    between atoms: _78  and  _79
REMARK   31  A    between atoms: _78  and  _81
REMARK   32  A    between atoms: _81  and  _82
REMARK   33  A    between atoms: _85  and  _87
REMARK   34  A    between atoms: _87  and  _88
REMARK   35  A    between atoms: _87  and  _90
REMARK   36  A    between atoms: _90  and  _91
REMARK   37  A    between atoms: _91  and  _92
REMARK   38  A    between atoms: _94  and  _96
REMARK   39  A    between atoms: _96  and  _97
REMARK   40  A    between atoms: _96  and  _99
REMARK   41  A    between atoms: _99  and  _100
REMARK   42  A    between atoms: _100  and  _101
REMARK   43  A    between atoms: _104  and  _106
REMARK   44  A    between atoms: _106  and  _107
REMARK   45  A    between atoms: _106  and  _109
REMARK   46  A    between atoms: _109  and  _110
REMARK   47  A    between atoms: _110  and  _111
REMARK   48  A    between atoms: _111  and  _112
REMARK   49  A    between atoms: _112  and  _113
REMARK   50  A    between atoms: _117  and  _119
REMARK   51  A    between atoms: _119  and  _120
REMARK   52  A    between atoms: _119  and  _122
REMARK   53  A    between atoms: _122  and  _123
REMARK   54  A    between atoms: _128  and  _129
REMARK   55  A    between atoms: _131  and  _133
REMARK   56  A    between atoms: _133  and  _134
REMARK   57  A    between atoms: _133  and  _136
REMARK   58  A    between atoms: _136  and  _137
REMARK   59  A    between atoms: _140  and  _142
REMARK   60  A    between atoms: _142  and  _143
REMARK   61  A    between atoms: _142  and  _145
REMARK   62  A    between atoms: _145  and  _146
REMARK   63  A    between atoms: _151  and  _153
REMARK   64  A    between atoms: _153  and  _154
REMARK   65  A    between atoms: _153  and  _156
REMARK   66  A    between atoms: _156  and  _157
REMARK   67  A    between atoms: _162  and  _164
REMARK   68  A    between atoms: _164  and  _165
REMARK   69  A    between atoms: _164  and  _167
REMARK   70  A    between atoms: _167  and  _168
REMARK   71  A    between atoms: _171  and  _173
REMARK   72  A    between atoms: _173  and  _174
REMARK   73  A    between atoms: _173  and  _176
REMARK   74  A    between atoms: _178  and  _180
REMARK   75  A    between atoms: _180  and  _181
REMARK   76  A    between atoms: _180  and  _183
REMARK   77  A    between atoms: _183  and  _184
REMARK   78  A    between atoms: _184  and  _185
REMARK   79  A    between atoms: _190  and  _192
REMARK   80  A    between atoms: _192  and  _193
REMARK   81  A    between atoms: _192  and  _195
REMARK   82  A    between atoms: _195  and  _196
REMARK   83  A    between atoms: _196  and  _197
REMARK   84  A    between atoms: _200  and  _202
REMARK   85  A    between atoms: _202  and  _203
REMARK   86  A    between atoms: _205  and  _207
REMARK   87  A    between atoms: _207  and  _208
REMARK   88  A    between atoms: _207  and  _210
REMARK   89  A    between atoms: _210  and  _211
REMARK   90  A    between atoms: _216  and  _218
REMARK   91  A    between atoms: _218  and  _219
REMARK   92  A    between atoms: _218  and  _221
REMARK   93  A    between atoms: _221  and  _222
REMARK   94  A    between atoms: _225  and  _227
REMARK   95  A    between atoms: _227  and  _228
REMARK   96  A    between atoms: _227  and  _230
REMARK   97  A    between atoms: _230  and  _231
REMARK   98  A    between atoms: _231  and  _232
REMARK   99  A    between atoms: _235  and  _237
REMARK  100  A    between atoms: _237  and  _238
REMARK  101  A    between atoms: _237  and  _240
REMARK  102  A    between atoms: _240  and  _241
REMARK  103  A    between atoms: _246  and  _247
REMARK  104  A    between atoms: _249  and  _251
REMARK  105  A    between atoms: _251  and  _252
REMARK  106  A    between atoms: _251  and  _254
REMARK  107  A    between atoms: _254  and  _255
REMARK  108  A    between atoms: _257  and  _259
REMARK  109  A    between atoms: _259  and  _260
REMARK  110  A    between atoms: _259  and  _262
REMARK  111  A    between atoms: _262  and  _263
REMARK  112  A    between atoms: _268  and  _270
REMARK  113  A    between atoms: _270  and  _271
REMARK  114  A    between atoms: _270  and  _273
REMARK  115  A    between atoms: _273  and  _274
REMARK  116  A    between atoms: _280  and  _282
REMARK  117  A    between atoms: _282  and  _283
REMARK  118  A    between atoms: _282  and  _285
REMARK  119  A    between atoms: _285  and  _286
REMARK  120  A    between atoms: _291  and  _293
REMARK  121  A    between atoms: _293  and  _294
REMARK  122  A    between atoms: _293  and  _296
REMARK  123  A    between atoms: _296  and  _297
REMARK  124  A    between atoms: _297  and  _298
REMARK  125  A    between atoms: _301  and  _303
REMARK  126  A    between atoms: _303  and  _304
REMARK  127  A    between atoms: _303  and  _306
REMARK  128  A    between atoms: _306  and  _307
REMARK  129  A    between atoms: _312  and  _313
REMARK  130  A    between atoms: _315  and  _317
REMARK  131  A    between atoms: _317  and  _318
REMARK  132  A    between atoms: _317  and  _320
REMARK  133  A    between atoms: _320  and  _321
REMARK  134  A    between atoms: _324  and  _326
REMARK  135  A    between atoms: _326  and  _327
REMARK  136  A    between atoms: _326  and  _329
REMARK  137  A    between atoms: _329  and  _330
REMARK  138  A    between atoms: _335  and  _336
REMARK  139  A    between atoms: _338  and  _340
REMARK  140  A    between atoms: _340  and  _341
REMARK  141  A    between atoms: _340  and  _343
REMARK  142  A    between atoms: _343  and  _344
REMARK  143  A    between atoms: _346  and  _348
REMARK  144  A    between atoms: _348  and  _349
REMARK  145  A    between atoms: _348  and  _351
REMARK  146  A    between atoms: _351  and  _352
REMARK  147  A    between atoms: _357  and  _358
REMARK  148  A    between atoms: _360  and  _362
REMARK  149  A    between atoms: _362  and  _363
REMARK  150  A    between atoms: _362  and  _365
REMARK  151  A    between atoms: _365  and  _366
REMARK  152  A    between atoms: _372  and  _374
REMARK  153  A    between atoms: _374  and  _375
REMARK  154  A    between atoms: _374  and  _377
REMARK  155  A    between atoms: _377  and  _378
REMARK  156  A    between atoms: _384  and  _386
REMARK  157  A    between atoms: _386  and  _387
REMARK  158  A    between atoms: _390  and  _392
REMARK  159  A    between atoms: _392  and  _393
REMARK  160  A    between atoms: _392  and  _395
REMARK  161  A    between atoms: _395  and  _396
REMARK  162  A    between atoms: _398  and  _400
REMARK  163  A    between atoms: _400  and  _401
REMARK  164  A    between atoms: _400  and  _403
REMARK  165  A    between atoms: _403  and  _404
REMARK  166  A    between atoms: _410  and  _412
REMARK  167  A    between atoms: _412  and  _413
REMARK  168  A    between atoms: _412  and  _415
REMARK  169  A    between atoms: _415  and  _416
REMARK  170  A    between atoms: _419  and  _421
REMARK  171  A    between atoms: _421  and  _422
REMARK  172  A    between atoms: _421  and  _424
REMARK  173  A    between atoms: _424  and  _425
REMARK  174  A    between atoms: _435  and  _437
REMARK  175  A    between atoms: _437  and  _438
REMARK  176  A    between atoms: _440  and  _442
REMARK  177  A    between atoms: _442  and  _443
REMARK  178  A    between atoms: _442  and  _445
REMARK  179  A    between atoms: _445  and  _446
REMARK  180  A    between atoms: _449  and  _451
REMARK  181  A    between atoms: _451  and  _452
REMARK  182  A    between atoms: _451  and  _454
REMARK  183  A    between atoms: _454  and  _455
REMARK  184  A    between atoms: _465  and  _467
REMARK  185  A    between atoms: _467  and  _468
REMARK  186  A    between atoms: _467  and  _470
REMARK  187  A    between atoms: _470  and  _471
REMARK  188  A    between atoms: _473  and  _475
REMARK  189  A    between atoms: _475  and  _476
REMARK  190  A    between atoms: _475  and  _478
REMARK  191  A    between atoms: _478  and  _479
REMARK  192  A    between atoms: _482  and  _484
REMARK  193  A    between atoms: _484  and  _485
REMARK  194  A    between atoms: _484  and  _487
REMARK  195  A    between atoms: _490  and  _492
REMARK  196  A    between atoms: _492  and  _493
REMARK  197  A    between atoms: _492  and  _495
REMARK  198  A    between atoms: _495  and  _496
REMARK  199  A    between atoms: _496  and  _497
REMARK  200  A    between atoms: _502  and  _504
REMARK  201  A    between atoms: _504  and  _505
REMARK  202  A    between atoms: _504  and  _507
REMARK  203  A    between atoms: _507  and  _508
REMARK  204  A    between atoms: _510  and  _512
REMARK  205  A    between atoms: _512  and  _513
REMARK  206  A    between atoms: _512  and  _515
REMARK  207  A    between atoms: _515  and  _516
REMARK  208  A    between atoms: _518  and  _520
REMARK  209  A    between atoms: _520  and  _521
REMARK  210  A    between atoms: _520  and  _523
REMARK  211  A    between atoms: _523  and  _524
REMARK  212  A    between atoms: _527  and  _529
REMARK  213  A    between atoms: _529  and  _530
REMARK  214  A    between atoms: _529  and  _532
REMARK  215  A    between atoms: _532  and  _533
REMARK  216  A    between atoms: _533  and  _534
REMARK  217  A    between atoms: _537  and  _539
REMARK  218  A    between atoms: _539  and  _540
REMARK  219  A    between atoms: _539  and  _542
REMARK  220  A    between atoms: _542  and  _543
REMARK  221  A    between atoms: _549  and  _551
REMARK  222  A    between atoms: _551  and  _552
REMARK  223  A    between atoms: _554  and  _556
REMARK  224  A    between atoms: _556  and  _557
REMARK  225  A    between atoms: _556  and  _559
REMARK  226  A    between atoms: _559  and  _560
REMARK  227  A    between atoms: _565  and  _566
REMARK  228  A    between atoms: _568  and  _570
REMARK  229  A    between atoms: _570  and  _571
REMARK  230  A    between atoms: _570  and  _573
REMARK  231  A    between atoms: _573  and  _574
REMARK  232  A    between atoms: _579  and  _580
REMARK  233  A    between atoms: _582  and  _584
REMARK  234  A    between atoms: _584  and  _585
REMARK  235  A    between atoms: _588  and  _590
REMARK  236  A    between atoms: _590  and  _591
REMARK  237  A    between atoms: _590  and  _593
REMARK  238  A    between atoms: _593  and  _594
REMARK  239  A    between atoms: _594  and  _595
REMARK  240  A    between atoms: _595  and  _596
REMARK                            x       y       z     vdW  Elec       q    Type
REMARK                         _______ _______ _______ _____ _____    ______ ____
ROOT
ATOM      1  CA  TYR A   1      15.547  -1.441  12.069  0.00  0.00    +0.149 C 
ENDROOT
BRANCH   1   2
ATOM      2  C   TYR A   1      16.190  -1.914  13.375  0.00  0.00    +0.239 C 
ATOM      3  O   TYR A   1      15.570  -2.665  14.134  0.00  0.00    -0.274 OA
ATOM      4  N   ALA A   2      17.415  -1.470  13.644  0.00  0.00    -0.298 N 
ATOM      5  H   ALA A   2      17.913  -0.884  12.945  0.00  0.00    +0.150 HD
BRANCH   4   6
ATOM      6  CA  ALA A   2      18.070  -1.796  14.911  0.00  0.00    +0.137 C 
ATOM      7  CB  ALA A   2      19.457  -1.141  14.972  0.00  0.00    +0.030 C 
BRANCH   6   8
ATOM      8  C   ALA A   2      17.202  -1.326  16.072  0.00  0.00    +0.227 C 
ATOM      9  O   ALA A   2      16.977  -2.065  17.040  0.00  0.00    -0.286 OA
ENDBRANCH   6   8
ENDBRANCH   4   6
ENDBRANCH   1   2
BRANCH   1  10
ATOM     10  N   TYR A   1      15.791  -0.001  11.848  0.00  0.00    -0.238 NA
ATOM     11  H   TYR A   1      16.370   0.301  11.039  0.00  0.00    +0.142 HD
ENDBRANCH   1  10
BRANCH   1  12
ATOM     12  CB  TYR A   1      16.059  -2.278  10.903  0.00  0.00    +0.053 C 
BRANCH  12  13
ATOM     13  CG  TYR A   1      15.737  -3.754  11.043  0.00  0.00    -0.020 A 
ATOM     14  CD2 TYR A   1      16.744  -4.682  11.333  0.00  0.00    -0.001 A 
ATOM     15  CE2 TYR A   1      16.444  -6.045  11.454  0.00  0.00    +0.036 A 
ATOM     16  CZ  TYR A   1      15.137  -6.472  11.298  0.00  0.00    +0.134 A 
ATOM     17  CE1 TYR A   1      14.117  -5.570  11.025  0.00  0.00    +0.036 A 
ATOM     18  CD1 TYR A   1      14.427  -4.218  10.885  0.00  0.00    -0.001 A 
BRANCH  16  19
ATOM     19  OH  TYR A   1      14.839  -7.817  11.407  0.00  0.00    -0.506 OA
ATOM     20  HH  TYR A   1      13.868  -7.951  11.270  0.00  0.00    +0.292 HD
ENDBRANCH  16  19
ENDBRANCH  12  13
ENDBRANCH   1  12
TORSDOF 7
REMARK  Name = ../refined-set-2016/4cg8/4cg8_pocket.pdb
REMARK  240 active torsions:
REMARK  status: ('A' for Active; 'I' for Inactive)
REMARK    1  A    between atoms: _1  and  _3
REMARK    2  A    between atoms: _3  and  _4
REMARK    3  A    between atoms: _3  and  _6
REMARK    4  A    between atoms: _6  and  _7
REMARK    5  A    between atoms: _7  and  _8
REMARK    6  A    between atoms: _8  and  _9
REMARK    7  A    between atoms: _18  and  _20
REMARK    8  A    between atoms: _20  and  _21
REMARK    9  A    between atoms: _20  and  _23
REMARK   10  A    between atoms: _23  and  _24
REMARK   11  A    between atoms: _26  and  _28
REMARK   12  A    between atoms: _28  and  _29
REMARK   13  A    between atoms: _28  and  _31
REMARK   14  A    between atoms: _31  and  _32
REMARK   15  A    between atoms: _37  and  _39
REMARK   16  A    between atoms: _39  and  _40
REMARK   17  A    between atoms: _39  and  _42
REMARK   18  A    between atoms: _42  and  _43
REMARK   19  A    between atoms: _46  and  _48
REMARK   20  A    between atoms: _48  and  _49
REMARK   21  A    between atoms: _48  and  _51
REMARK   22  A    between atoms: _51  and  _52
REMARK   23  A    between atoms: _62  and  _64
REMARK   24  A    between atoms: _64  and  _65
REMARK   25  A    between atoms: _64  and  _67
REMARK   26  A    between atoms: _67  and  _68
REMARK   27  A    between atoms: _71  and  _73
REMARK   28  A    between atoms: _73  and  _74
REMARK   29  A    between atoms: _76  and  _78
REMARK   30  A    between atoms: _78  and  _79
REMARK   31  A    between atoms: _78  and  _81
REMARK   32  A    between atoms: _81  and  _82
REMARK   33  A    between atoms: _85  and  _87
REMARK   34  A    between atoms: _87  and  _88
REMARK   35  A    between atoms: _87  and  _90
REMARK   36  A    between atoms: _90  and  _91
REMARK   37  A    between atoms: _91  and  _92
REMARK   38  A    between atoms: _94  and  _96
REMARK   39  A    between atoms: _96  and  _97
REMARK   40  A    between atoms: _96  and  _99
REMARK   41  A    between atoms: _99  and  _100
REMARK   42  A    between atoms: _100  and  _101
REMARK   43  A    between atoms: _104  and  _106
REMARK   44  A    between atoms: _106  and  _107
REMARK   45  A    between atoms: _106  and  _109
REMARK   46  A    between atoms: _109  and  _110
REMARK   47  A    between atoms: _110  and  _111
REMARK   48  A    between atoms: _111  and  _112
REMARK   49  A    between atoms: _112  and  _113
REMARK   50  A    between atoms: _117  and  _119
REMARK   51  A    between atoms: _119  and  _120
REMARK   52  A    between atoms: _119  and  _122
REMARK   53  A    between atoms: _122  and  _123
REMARK   54  A    between atoms: _128  and  _129
REMARK   55  A    between atoms: _131  and  _133
REMARK   56  A    between atoms: _133  and  _134
REMARK   57  A    between atoms: _133  and  _136
REMARK   58  A    between atoms: _136  and  _137
REMARK   59  A    between atoms: _140  and  _142
REMARK   60  A    between atoms: _142  and  _143
REMARK   61  A    between atoms: _142  and  _145
REMARK   62  A    between atoms: _145  and  _146
REMARK   63  A    between atoms: _151  and  _153
REMARK   64  A    between atoms: _153  and  _154
REMARK   65  A    between atoms: _153  and  _156
REMARK   66  A    between atoms: _156  and  _157
REMARK   67  A    between atoms: _162  and  _164
REMARK   68  A    between atoms: _164  and  _165
REMARK   69  A    between atoms: _164  and  _167
REMARK   70  A    between atoms: _167  and  _168
REMARK   71  A    between atoms: _171  and  _173
REMARK   72  A    between atoms: _173  and  _174
REMARK   73  A    between atoms: _173  and  _176
REMARK   74  A    between atoms: _178  and  _180
REMARK   75  A    between atoms: _180  and  _181
REMARK   76  A    between atoms: _180  and  _183
REMARK   77  A    between atoms: _183  and  _184
REMARK   78  A    between atoms: _184  and  _185
REMARK   79  A    between atoms: _190  and  _192
REMARK   80  A    between atoms: _192  and  _193
REMARK   81  A    between atoms: _192  and  _195
REMARK   82  A    between atoms: _195  and  _196
REMARK   83  A    between atoms: _196  and  _197
REMARK   84  A    between atoms: _200  and  _202
REMARK   85  A    between atoms: _202  and  _203
REMARK   86  A    between atoms: _205  and  _207
REMARK   87  A    between atoms: _207  and  _208
REMARK   88  A    between atoms: _207  and  _210
REMARK   89  A    between atoms: _210  and  _211
REMARK   90  A    between atoms: _216  and  _218
REMARK   91  A    between atoms: _218  and  _219
REMARK   92  A    between atoms: _218  and  _221
REMARK   93  A    between atoms: _221  and  _222
REMARK   94  A    between atoms: _225  and  _227
REMARK   95  A    between atoms: _227  and  _228
REMARK   96  A    between atoms: _227  and  _230
REMARK   97  A    between atoms: _230  and  _231
REMARK   98  A    between atoms: _231  and  _232
REMARK   99  A    between atoms: _235  and  _237
REMARK  100  A    between atoms: _237  and  _238
REMARK  101  A    between atoms: _237  and  _240
REMARK  102  A    between atoms: _240  and  _241
REMARK  103  A    between atoms: _246  and  _247
REMARK  104  A    between atoms: _249  and  _251
REMARK  105  A    between atoms: _251  and  _252
REMARK  106  A    between atoms: _251  and  _254
REMARK  107  A    between atoms: _254  and  _255
REMARK  108  A    between atoms: _257  and  _259
REMARK  109  A    between atoms: _259  and  _260
REMARK  110  A    between atoms: _259  and  _262
REMARK  111  A    between atoms: _262  and  _263
REMARK  112  A    between atoms: _268  and  _270
REMARK  113  A    between atoms: _270  and  _271
REMARK  114  A    between atoms: _270  and  _273
REMARK  115  A    between atoms: _273  and  _274
REMARK  116  A    between atoms: _280  and  _282
REMARK  117  A    between atoms: _282  and  _283
REMARK  118  A    between atoms: _282  and  _285
REMARK  119  A    between atoms: _285  and  _286
REMARK  120  A    between atoms: _291  and  _293
REMARK  121  A    between atoms: _293  and  _294
REMARK  122  A    between atoms: _293  and  _296
REMARK  123  A    between atoms: _296  and  _297
REMARK  124  A    between atoms: _297  and  _298
REMARK  125  A    between atoms: _301  and  _303
REMARK  126  A    between atoms: _303  and  _304
REMARK  127  A    between atoms: _303  and  _306
REMARK  128  A    between atoms: _306  and  _307
REMARK  129  A    between atoms: _312  and  _313
REMARK  130  A    between atoms: _315  and  _317
REMARK  131  A    between atoms: _317  and  _318
REMARK  132  A    between atoms: _317  and  _320
REMARK  133  A    between atoms: _320  and  _321
REMARK  134  A    between atoms: _324  and  _326
REMARK  135  A    between atoms: _326  and  _327
REMARK  136  A    between atoms: _326  and  _329
REMARK  137  A    between atoms: _329  and  _330
REMARK  138  A    between atoms: _335  and  _336
REMARK  139  A    between atoms: _338  and  _340
REMARK  140  A    between atoms: _340  and  _341
REMARK  141  A    between atoms: _340  and  _343
REMARK  142  A    between atoms: _343  and  _344
REMARK  143  A    between atoms: _346  and  _348
REMARK  144  A    between atoms: _348  and  _349
REMARK  145  A    between atoms: _348  and  _351
REMARK  146  A    between atoms: _351  and  _352
REMARK  147  A    between atoms: _357  and  _358
REMARK  148  A    between atoms: _360  and  _362
REMARK  149  A    between atoms: _362  and  _363
REMARK  150  A    between atoms: _362  and  _365
REMARK  151  A    between atoms: _365  and  _366
REMARK  152  A    between atoms: _372  and  _374
REMARK  153  A    between atoms: _374  and  _375
REMARK  154  A    between atoms: _374  and  _377
REMARK  155  A    between atoms: _377  and  _378
REMARK  156  A    between atoms: _384  and  _386
REMARK  157  A    between atoms: _386  and  _387
REMARK  158  A    between atoms: _390  and  _392
REMARK  159  A    between atoms: _392  and  _393
REMARK  160  A    between atoms: _392  and  _395
REMARK  161  A    between atoms: _395  and  _396
REMARK  162  A    between atoms: _398  and  _400
REMARK  163  A    between atoms: _400  and  _401
REMARK  164  A    between atoms: _400  and  _403
REMARK  165  A    between atoms: _403  and  _404
REMARK  166  A    between atoms: _410  and  _412
REMARK  167  A    between atoms: _412  and  _413
REMARK  168  A    between atoms: _412  and  _415
REMARK  169  A    between atoms: _415  and  _416
REMARK  170  A    between atoms: _419  and  _421
REMARK  171  A    between atoms: _421  and  _422
REMARK  172  A    between atoms: _421  and  _424
REMARK  173  A    between atoms: _424  and  _425
REMARK  174  A    between atoms: _435  and  _437
REMARK  175  A    between atoms: _437  and  _438
REMARK  176  A    between atoms: _440  and  _442
REMARK  177  A    between atoms: _442  and  _443
REMARK  178  A    between atoms: _442  and  _445
REMARK  179  A    between atoms: _445  and  _446
REMARK  180  A    between atoms: _449  and  _451
REMARK  181  A    between atoms: _451  and  _452
REMARK  182  A    between atoms: _451  and  _454
REMARK  183  A    between atoms: _454  and  _455
REMARK  184  A    between atoms: _465  and  _467
REMARK  185  A    between atoms: _467  and  _468
REMARK  186  A    between atoms: _467  and  _470
REMARK  187  A    between atoms: _470  and  _471
REMARK  188  A    between atoms: _473  and  _475
REMARK  189  A    between atoms: _475  and  _476
REMARK  190  A    between atoms: _475  and  _478
REMARK  191  A    between atoms: _478  and  _479
REMARK  192  A    between atoms: _482  and  _484
REMARK  193  A    between atoms: _484  and  _485
REMARK  194  A    between atoms: _484  and  _487
REMARK  195  A    between atoms: _490  and  _492
REMARK  196  A    between atoms: _492  and  _493
REMARK  197  A    between atoms: _492  and  _495
REMARK  198  A    between atoms: _495  and  _496
REMARK  199  A    between atoms: _496  and  _497
REMARK  200  A    between atoms: _502  and  _504
REMARK  201  A    between atoms: _504  and  _505
REMARK  202  A    between atoms: _504  and  _507
REMARK  203  A    between atoms: _507  and  _508
REMARK  204  A    between atoms: _510  and  _512
REMARK  205  A    between atoms: _512  and  _513
REMARK  206  A    between atoms: _512  and  _515
REMARK  207  A    between atoms: _515  and  _516
REMARK  208  A    between atoms: _518  and  _520
REMARK  209  A    between atoms: _520  and  _521
REMARK  210  A    between atoms: _520  and  _523
REMARK  211  A    between atoms: _523  and  _524
REMARK  212  A    between atoms: _527  and  _529
REMARK  213  A    between atoms: _529  and  _530
REMARK  214  A    between atoms: _529  and  _532
REMARK  215  A    between atoms: _532  and  _533
REMARK  216  A    between atoms: _533  and  _534
REMARK  217  A    between atoms: _537  and  _539
REMARK  218  A    between atoms: _539  and  _540
REMARK  219  A    between atoms: _539  and  _542
REMARK  220  A    between atoms: _542  and  _543
REMARK  221  A    between atoms: _549  and  _551
REMARK  222  A    between atoms: _551  and  _552
REMARK  223  A    between atoms: _554  and  _556
REMARK  224  A    between atoms: _556  and  _557
REMARK  225  A    between atoms: _556  and  _559
REMARK  226  A    between atoms: _559  and  _560
REMARK  227  A    between atoms: _565  and  _566
REMARK  228  A    between atoms: _568  and  _570
REMARK  229  A    between atoms: _570  and  _571
REMARK  230  A    between atoms: _570  and  _573
REMARK  231  A    between atoms: _573  and  _574
REMARK  232  A    between atoms: _579  and  _580
REMARK  233  A    between atoms: _582  and  _584
REMARK  234  A    between atoms: _584  and  _585
REMARK  235  A    between atoms: _588  and  _590
REMARK  236  A    between atoms: _590  and  _591
REMARK  237  A    between atoms: _590  and  _593
REMARK  238  A    between atoms: _593  and  _594
REMARK  239  A    between atoms: _594  and  _595
REMARK  240  A    between atoms: _595  and  _596
REMARK                            x       y       z     vdW  Elec       q    Type
REMARK                         _______ _______ _______ _____ _____    ______ ____
ROOT
ATOM      1  NE  ARG A   1      14.263  -7.997  15.614  0.00  0.00    -0.265 N 
ATOM      2  HE  ARG A   1      13.966  -7.932  16.608  0.00  0.00    +0.259 HD
ATOM      3  CZ  ARG A   1      14.500  -9.216  15.110  0.00  0.00    +0.342 C 
ATOM      4  NH2 ARG A   1      14.328 -10.304  15.869  0.00  0.00    -0.292 N 
ATOM      5 HH21 ARG A   1      14.009 -10.206  16.854  0.00  0.00    +0.255 HD
ATOM      6 HH22 ARG A   1      14.513 -11.248  15.474  0.00  0.00    +0.255 HD
ATOM      7  NH1 ARG A   1      14.868  -9.362  13.845  0.00  0.00    -0.292 N 
ATOM      8 HH11 ARG A   1      15.050 -10.312  13.463  0.00  0.00    +0.255 HD
ATOM      9 HH12 ARG A   1      14.975  -8.527  13.235  0.00  0.00    +0.255 HD
ENDROOT
BRANCH   1  10
ATOM     10  CD  ARG A   1      14.396  -6.742  14.851  0.00  0.00    +0.174 C 
BRANCH  10  11
ATOM     11  CG  ARG A   1      15.664  -5.951  15.181  0.00  0.00    +0.045 C 
BRANCH  11  12
ATOM     12  CB  ARG A   1      15.819  -5.555  16.648  0.00  0.00    +0.029 C 
BRANCH  12  13
ATOM     13  CA  ARG A   1      14.607  -4.858  17.292  0.00  0.00    +0.133 C 
BRANCH  13  14
ATOM     14  N   ARG A   1      14.265  -3.599  16.607  0.00  0.00    -0.239 NA
ATOM     15  H   ARG A   1      14.922  -3.177  15.920  0.00  0.00    +0.142 HD
ENDBRANCH  13  14
BRANCH  13  16
ATOM     16  C   ARG A   1      14.847  -4.656  18.795  0.00  0.00    +0.224 C 
ATOM     17  O   ARG A   1      14.399  -5.457  19.632  0.00  0.00    -0.287 OA
ENDBRANCH  13  16
ENDBRANCH  12  13
ENDBRANCH  11  12
ENDBRANCH  10  11
ENDBRANCH   1  10
TORSDOF 6
REMARK  Name = ../refined-set-2016/4cg8/4cg8_pocket.pdb
REMARK  240 active torsions:
REMARK  status: ('A' for Active; 'I' for Inactive)
REMARK    1  A    between atoms: _1  and  _3
REMARK    2  A    between atoms: _3  and  _4
REMARK    3  A    between atoms: _3  and  _6
REMARK    4  A    between atoms: _6  and  _7
REMARK    5  A    between atoms: _7  and  _8
REMARK    6  A    between atoms: _8  and  _9
REMARK    7  A    between atoms: _18  and  _20
REMARK    8  A    between atoms: _20  and  _21
REMARK    9  A    between atoms: _20  and  _23
REMARK   10  A    between atoms: _23  and  _24
REMARK   11  A    between atoms: _26  and  _28
REMARK   12  A    between atoms: _28  and  _29
REMARK   13  A    between atoms: _28  and  _31
REMARK   14  A    between atoms: _31  and  _32
REMARK   15  A    between atoms: _37  and  _39
REMARK   16  A    between atoms: _39  and  _40
REMARK   17  A    between atoms: _39  and  _42
REMARK   18  A    between atoms: _42  and  _43
REMARK   19  A    between atoms: _46  and  _48
REMARK   20  A    between atoms: _48  and  _49
REMARK   21  A    between atoms: _48  and  _51
REMARK   22  A    between atoms: _51  and  _52
REMARK   23  A    between atoms: _62  and  _64
REMARK   24  A    between atoms: _64  and  _65
REMARK   25  A    between atoms: _64  and  _67
REMARK   26  A    between atoms: _67  and  _68
REMARK   27  A    between atoms: _71  and  _73
REMARK   28  A    between atoms: _73  and  _74
REMARK   29  A    between atoms: _76  and  _78
REMARK   30  A    between atoms: _78  and  _79
REMARK   31  A    between atoms: _78  and  _81
REMARK   32  A    between atoms: _81  and  _82
REMARK   33  A    between atoms: _85  and  _87
REMARK   34  A    between atoms: _87  and  _88
REMARK   35  A    between atoms: _87  and  _90
REMARK   36  A    between atoms: _90  and  _91
REMARK   37  A    between atoms: _91  and  _92
REMARK   38  A    between atoms: _94  and  _96
REMARK   39  A    between atoms: _96  and  _97
REMARK   40  A    between atoms: _96  and  _99
REMARK   41  A    between atoms: _99  and  _100
REMARK   42  A    between atoms: _100  and  _101
REMARK   43  A    between atoms: _104  and  _106
REMARK   44  A    between atoms: _106  and  _107
REMARK   45  A    between atoms: _106  and  _109
REMARK   46  A    between atoms: _109  and  _110
REMARK   47  A    between atoms: _110  and  _111
REMARK   48  A    between atoms: _111  and  _112
REMARK   49  A    between atoms: _112  and  _113
REMARK   50  A    between atoms: _117  and  _119
REMARK   51  A    between atoms: _119  and  _120
REMARK   52  A    between atoms: _119  and  _122
REMARK   53  A    between atoms: _122  and  _123
REMARK   54  A    between atoms: _128  and  _129
REMARK   55  A    between atoms: _131  and  _133
REMARK   56  A    between atoms: _133  and  _134
REMARK   57  A    between atoms: _133  and  _136
REMARK   58  A    between atoms: _136  and  _137
REMARK   59  A    between atoms: _140  and  _142
REMARK   60  A    between atoms: _142  and  _143
REMARK   61  A    between atoms: _142  and  _145
REMARK   62  A    between atoms: _145  and  _146
REMARK   63  A    between atoms: _151  and  _153
REMARK   64  A    between atoms: _153  and  _154
REMARK   65  A    between atoms: _153  and  _156
REMARK   66  A    between atoms: _156  and  _157
REMARK   67  A    between atoms: _162  and  _164
REMARK   68  A    between atoms: _164  and  _165
REMARK   69  A    between atoms: _164  and  _167
REMARK   70  A    between atoms: _167  and  _168
REMARK   71  A    between atoms: _171  and  _173
REMARK   72  A    between atoms: _173  and  _174
REMARK   73  A    between atoms: _173  and  _176
REMARK   74  A    between atoms: _178  and  _180
REMARK   75  A    between atoms: _180  and  _181
REMARK   76  A    between atoms: _180  and  _183
REMARK   77  A    between atoms: _183  and  _184
REMARK   78  A    between atoms: _184  and  _185
REMARK   79  A    between atoms: _190  and  _192
REMARK   80  A    between atoms: _192  and  _193
REMARK   81  A    between atoms: _192  and  _195
REMARK   82  A    between atoms: _195  and  _196
REMARK   83  A    between atoms: _196  and  _197
REMARK   84  A    between atoms: _200  and  _202
REMARK   85  A    between atoms: _202  and  _203
REMARK   86  A    between atoms: _205  and  _207
REMARK   87  A    between atoms: _207  and  _208
REMARK   88  A    between atoms: _207  and  _210
REMARK   89  A    between atoms: _210  and  _211
REMARK   90  A    between atoms: _216  and  _218
REMARK   91  A    between atoms: _218  and  _219
REMARK   92  A    between atoms: _218  and  _221
REMARK   93  A    between atoms: _221  and  _222
REMARK   94  A    between atoms: _225  and  _227
REMARK   95  A    between atoms: _227  and  _228
REMARK   96  A    between atoms: _227  and  _230
REMARK   97  A    between atoms: _230  and  _231
REMARK   98  A    between atoms: _231  and  _232
REMARK   99  A    between atoms: _235  and  _237
REMARK  100  A    between atoms: _237  and  _238
REMARK  101  A    between atoms: _237  and  _240
REMARK  102  A    between atoms: _240  and  _241
REMARK  103  A    between atoms: _246  and  _247
REMARK  104  A    between atoms: _249  and  _251
REMARK  105  A    between atoms: _251  and  _252
REMARK  106  A    between atoms: _251  and  _254
REMARK  107  A    between atoms: _254  and  _255
REMARK  108  A    between atoms: _257  and  _259
REMARK  109  A    between atoms: _259  and  _260
REMARK  110  A    between atoms: _259  and  _262
REMARK  111  A    between atoms: _262  and  _263
REMARK  112  A    between atoms: _268  and  _270
REMARK  113  A    between atoms: _270  and  _271
REMARK  114  A    between atoms: _270  and  _273
REMARK  115  A    between atoms: _273  and  _274
REMARK  116  A    between atoms: _280  and  _282
REMARK  117  A    between atoms: _282  and  _283
REMARK  118  A    between atoms: _282  and  _285
REMARK  119  A    between atoms: _285  and  _286
REMARK  120  A    between atoms: _291  and  _293
REMARK  121  A    between atoms: _293  and  _294
REMARK  122  A    between atoms: _293  and  _296
REMARK  123  A    between atoms: _296  and  _297
REMARK  124  A    between atoms: _297  and  _298
REMARK  125  A    between atoms: _301  and  _303
REMARK  126  A    between atoms: _303  and  _304
REMARK  127  A    between atoms: _303  and  _306
REMARK  128  A    between atoms: _306  and  _307
REMARK  129  A    between atoms: _312  and  _313
REMARK  130  A    between atoms: _315  and  _317
REMARK  131  A    between atoms: _317  and  _318
REMARK  132  A    between atoms: _317  and  _320
REMARK  133  A    between atoms: _320  and  _321
REMARK  134  A    between atoms: _324  and  _326
REMARK  135  A    between atoms: _326  and  _327
REMARK  136  A    between atoms: _326  and  _329
REMARK  137  A    between atoms: _329  and  _330
REMARK  138  A    between atoms: _335  and  _336
REMARK  139  A    between atoms: _338  and  _340
REMARK  140  A    between atoms: _340  and  _341
REMARK  141  A    between atoms: _340  and  _343
REMARK  142  A    between atoms: _343  and  _344
REMARK  143  A    between atoms: _346  and  _348
REMARK  144  A    between atoms: _348  and  _349
REMARK  145  A    between atoms: _348  and  _351
REMARK  146  A    between atoms: _351  and  _352
REMARK  147  A    between atoms: _357  and  _358
REMARK  148  A    between atoms: _360  and  _362
REMARK  149  A    between atoms: _362  and  _363
REMARK  150  A    between atoms: _362  and  _365
REMARK  151  A    between atoms: _365  and  _366
REMARK  152  A    between atoms: _372  and  _374
REMARK  153  A    between atoms: _374  and  _375
REMARK  154  A    between atoms: _374  and  _377
REMARK  155  A    between atoms: _377  and  _378
REMARK  156  A    between atoms: _384  and  _386
REMARK  157  A    between atoms: _386  and  _387
REMARK  158  A    between atoms: _390  and  _392
REMARK  159  A    between atoms: _392  and  _393
REMARK  160  A    between atoms: _392  and  _395
REMARK  161  A    between atoms: _395  and  _396
REMARK  162  A    between atoms: _398  and  _400
REMARK  163  A    between atoms: _400  and  _401
REMARK  164  A    between atoms: _400  and  _403
REMARK  165  A    between atoms: _403  and  _404
REMARK  166  A    between atoms: _410  and  _412
REMARK  167  A    between atoms: _412  and  _413
REMARK  168  A    between atoms: _412  and  _415
REMARK  169  A    between atoms: _415  and  _416
REMARK  170  A    between atoms: _419  and  _421
REMARK  171  A    between atoms: _421  and  _422
REMARK  172  A    between atoms: _421  and  _424
REMARK  173  A    between atoms: _424  and  _425
REMARK  174  A    between atoms: _435  and  _437
REMARK  175  A    between atoms: _437  and  _438
REMARK  176  A    between atoms: _440  and  _442
REMARK  177  A    between atoms: _442  and  _443
REMARK  178  A    between atoms: _442  and  _445
REMARK  179  A    between atoms: _445  and  _446
REMARK  180  A    between atoms: _449  and  _451
REMARK  181  A    between atoms: _451  and  _452
REMARK  182  A    between atoms: _451  and  _454
REMARK  183  A    between atoms: _454  and  _455
REMARK  184  A    between atoms: _465  and  _467
REMARK  185  A    between atoms: _467  and  _468
REMARK  186  A    between atoms: _467  and  _470
REMARK  187  A    between atoms: _470  and  _471
REMARK  188  A    between atoms: _473  and  _475
REMARK  189  A    between atoms: _475  and  _476
REMARK  190  A    between atoms: _475  and  _478
REMARK  191  A    between atoms: _478  and  _479
REMARK  192  A    between atoms: _482  and  _484
REMARK  193  A    between atoms: _484  and  _485
REMARK  194  A    between atoms: _484  and  _487
REMARK  195  A    between atoms: _490  and  _492
REMARK  196  A    between atoms: _492  and  _493
REMARK  197  A    between atoms: _492  and  _495
REMARK  198  A    between atoms: _495  and  _496
REMARK  199  A    between atoms: _496  and  _497
REMARK  200  A    between atoms: _502  and  _504
REMARK  201  A    between atoms: _504  and  _505
REMARK  202  A    between atoms: _504  and  _507
REMARK  203  A    between atoms: _507  and  _508
REMARK  204  A    between atoms: _510  and  _512
REMARK  205  A    between atoms: _512  and  _513
REMARK  206  A    between atoms: _512  and  _515
REMARK  207  A    between atoms: _515  and  _516
REMARK  208  A    between atoms: _518  and  _520
REMARK  209  A    between atoms: _520  and  _521
REMARK  210  A    between atoms: _520  and  _523
REMARK  211  A    between atoms: _523  and  _524
REMARK  212  A    between atoms: _527  and  _529
REMARK  213  A    between atoms: _529  and  _530
REMARK  214  A    between atoms: _529  and  _532
REMARK  215  A    between atoms: _532  and  _533
REMARK  216  A    between atoms: _533  and  _534
REMARK  217  A    between atoms: _537  and  _539
REMARK  218  A    between atoms: _539  and  _540
REMARK  219  A    between atoms: _539  and  _542
REMARK  220  A    between atoms: _542  and  _543
REMARK  221  A    between atoms: _549  and  _551
REMARK  222  A    between atoms: _551  and  _552
REMARK  223  A    between atoms: _554  and  _556
REMARK  224  A    between atoms: _556  and  _557
REMARK  225  A    between atoms: _556  and  _559
REMARK  226  A    between atoms: _559  and  _560
REMARK  227  A    between atoms: _565  and  _566
REMARK  228  A    between atoms: _568  and  _570
REMARK  229  A    between atoms: _570  and  _571
REMARK  230  A    between atoms: _570  and  _573
REMARK  231  A    between atoms: _573  and  _574
REMARK  232  A    between atoms: _579  and  _580
REMARK  233  A    between atoms: _582  and  _584
REMARK  234  A    between atoms: _584  and  _585
REMARK  235  A    between atoms: _588  and  _590
REMARK  236  A    between atoms: _590  and  _591
REMARK  237  A    between atoms: _590  and  _593
REMARK  238  A    between atoms: _593  and  _594
REMARK  239  A    between atoms: _594  and  _595
REMARK  240  A    between atoms: _595  and  _596
REMARK                            x       y       z     vdW  Elec       q    Type
REMARK                         _______ _______ _______ _____ _____    ______ ____
ROOT
ATOM      1  O   HOH     1      24.889 -16.127  -0.050  0.00  0.00    +0.000 OA
ENDROOT
TORSDOF 0
REMARK  Name = ../refined-set-2016/4cg8/4cg8_pocket.pdb
REMARK  240 active torsions:
REMARK  status: ('A' for Active; 'I' for Inactive)
REMARK    1  A    between atoms: _1  and  _3
REMARK    2  A    between atoms: _3  and  _4
REMARK    3  A    between atoms: _3  and  _6
REMARK    4  A    between atoms: _6  and  _7
REMARK    5  A    between atoms: _7  and  _8
REMARK    6  A    between atoms: _8  and  _9
REMARK    7  A    between atoms: _18  and  _20
REMARK    8  A    between atoms: _20  and  _21
REMARK    9  A    between atoms: _20  and  _23
REMARK   10  A    between atoms: _23  and  _24
REMARK   11  A    between atoms: _26  and  _28
REMARK   12  A    between atoms: _28  and  _29
REMARK   13  A    between atoms: _28  and  _31
REMARK   14  A    between atoms: _31  and  _32
REMARK   15  A    between atoms: _37  and  _39
REMARK   16  A    between atoms: _39  and  _40
REMARK   17  A    between atoms: _39  and  _42
REMARK   18  A    between atoms: _42  and  _43
REMARK   19  A    between atoms: _46  and  _48
REMARK   20  A    between atoms: _48  and  _49
REMARK   21  A    between atoms: _48  and  _51
REMARK   22  A    between atoms: _51  and  _52
REMARK   23  A    between atoms: _62  and  _64
REMARK   24  A    between atoms: _64  and  _65
REMARK   25  A    between atoms: _64  and  _67
REMARK   26  A    between atoms: _67  and  _68
REMARK   27  A    between atoms: _71  and  _73
REMARK   28  A    between atoms: _73  and  _74
REMARK   29  A    between atoms: _76  and  _78
REMARK   30  A    between atoms: _78  and  _79
REMARK   31  A    between atoms: _78  and  _81
REMARK   32  A    between atoms: _81  and  _82
REMARK   33  A    between atoms: _85  and  _87
REMARK   34  A    between atoms: _87  and  _88
REMARK   35  A    between atoms: _87  and  _90
REMARK   36  A    between atoms: _90  and  _91
REMARK   37  A    between atoms: _91  and  _92
REMARK   38  A    between atoms: _94  and  _96
REMARK   39  A    between atoms: _96  and  _97
REMARK   40  A    between atoms: _96  and  _99
REMARK   41  A    between atoms: _99  and  _100
REMARK   42  A    between atoms: _100  and  _101
REMARK   43  A    between atoms: _104  and  _106
REMARK   44  A    between atoms: _106  and  _107
REMARK   45  A    between atoms: _106  and  _109
REMARK   46  A    between atoms: _109  and  _110
REMARK   47  A    between atoms: _110  and  _111
REMARK   48  A    between atoms: _111  and  _112
REMARK   49  A    between atoms: _112  and  _113
REMARK   50  A    between atoms: _117  and  _119
REMARK   51  A    between atoms: _119  and  _120
REMARK   52  A    between atoms: _119  and  _122
REMARK   53  A    between atoms: _122  and  _123
REMARK   54  A    between atoms: _128  and  _129
REMARK   55  A    between atoms: _131  and  _133
REMARK   56  A    between atoms: _133  and  _134
REMARK   57  A    between atoms: _133  and  _136
REMARK   58  A    between atoms: _136  and  _137
REMARK   59  A    between atoms: _140  and  _142
REMARK   60  A    between atoms: _142  and  _143
REMARK   61  A    between atoms: _142  and  _145
REMARK   62  A    between atoms: _145  and  _146
REMARK   63  A    between atoms: _151  and  _153
REMARK   64  A    between atoms: _153  and  _154
REMARK   65  A    between atoms: _153  and  _156
REMARK   66  A    between atoms: _156  and  _157
REMARK   67  A    between atoms: _162  and  _164
REMARK   68  A    between atoms: _164  and  _165
REMARK   69  A    between atoms: _164  and  _167
REMARK   70  A    between atoms: _167  and  _168
REMARK   71  A    between atoms: _171  and  _173
REMARK   72  A    between atoms: _173  and  _174
REMARK   73  A    between atoms: _173  and  _176
REMARK   74  A    between atoms: _178  and  _180
REMARK   75  A    between atoms: _180  and  _181
REMARK   76  A    between atoms: _180  and  _183
REMARK   77  A    between atoms: _183  and  _184
REMARK   78  A    between atoms: _184  and  _185
REMARK   79  A    between atoms: _190  and  _192
REMARK   80  A    between atoms: _192  and  _193
REMARK   81  A    between atoms: _192  and  _195
REMARK   82  A    between atoms: _195  and  _196
REMARK   83  A    between atoms: _196  and  _197
REMARK   84  A    between atoms: _200  and  _202
REMARK   85  A    between atoms: _202  and  _203
REMARK   86  A    between atoms: _205  and  _207
REMARK   87  A    between atoms: _207  and  _208
REMARK   88  A    between atoms: _207  and  _210
REMARK   89  A    between atoms: _210  and  _211
REMARK   90  A    between atoms: _216  and  _218
REMARK   91  A    between atoms: _218  and  _219
REMARK   92  A    between atoms: _218  and  _221
REMARK   93  A    between atoms: _221  and  _222
REMARK   94  A    between atoms: _225  and  _227
REMARK   95  A    between atoms: _227  and  _228
REMARK   96  A    between atoms: _227  and  _230
REMARK   97  A    between atoms: _230  and  _231
REMARK   98  A    between atoms: _231  and  _232
REMARK   99  A    between atoms: _235  and  _237
REMARK  100  A    between atoms: _237  and  _238
REMARK  101  A    between atoms: _237  and  _240
REMARK  102  A    between atoms: _240  and  _241
REMARK  103  A    between atoms: _246  and  _247
REMARK  104  A    between atoms: _249  and  _251
REMARK  105  A    between atoms: _251  and  _252
REMARK  106  A    between atoms: _251  and  _254
REMARK  107  A    between atoms: _254  and  _255
REMARK  108  A    between atoms: _257  and  _259
REMARK  109  A    between atoms: _259  and  _260
REMARK  110  A    between atoms: _259  and  _262
REMARK  111  A    between atoms: _262  and  _263
REMARK  112  A    between atoms: _268  and  _270
REMARK  113  A    between atoms: _270  and  _271
REMARK  114  A    between atoms: _270  and  _273
REMARK  115  A    between atoms: _273  and  _274
REMARK  116  A    between atoms: _280  and  _282
REMARK  117  A    between atoms: _282  and  _283
REMARK  118  A    between atoms: _282  and  _285
REMARK  119  A    between atoms: _285  and  _286
REMARK  120  A    between atoms: _291  and  _293
REMARK  121  A    between atoms: _293  and  _294
REMARK  122  A    between atoms: _293  and  _296
REMARK  123  A    between atoms: _296  and  _297
REMARK  124  A    between atoms: _297  and  _298
REMARK  125  A    between atoms: _301  and  _303
REMARK  126  A    between atoms: _303  and  _304
REMARK  127  A    between atoms: _303  and  _306
REMARK  128  A    between atoms: _306  and  _307
REMARK  129  A    between atoms: _312  and  _313
REMARK  130  A    between atoms: _315  and  _317
REMARK  131  A    between atoms: _317  and  _318
REMARK  132  A    between atoms: _317  and  _320
REMARK  133  A    between atoms: _320  and  _321
REMARK  134  A    between atoms: _324  and  _326
REMARK  135  A    between atoms: _326  and  _327
REMARK  136  A    between atoms: _326  and  _329
REMARK  137  A    between atoms: _329  and  _330
REMARK  138  A    between atoms: _335  and  _336
REMARK  139  A    between atoms: _338  and  _340
REMARK  140  A    between atoms: _340  and  _341
REMARK  141  A    between atoms: _340  and  _343
REMARK  142  A    between atoms: _343  and  _344
REMARK  143  A    between atoms: _346  and  _348
REMARK  144  A    between atoms: _348  and  _349
REMARK  145  A    between atoms: _348  and  _351
REMARK  146  A    between atoms: _351  and  _352
REMARK  147  A    between atoms: _357  and  _358
REMARK  148  A    between atoms: _360  and  _362
REMARK  149  A    between atoms: _362  and  _363
REMARK  150  A    between atoms: _362  and  _365
REMARK  151  A    between atoms: _365  and  _366
REMARK  152  A    between atoms: _372  and  _374
REMARK  153  A    between atoms: _374  and  _375
REMARK  154  A    between atoms: _374  and  _377
REMARK  155  A    between atoms: _377  and  _378
REMARK  156  A    between atoms: _384  and  _386
REMARK  157  A    between atoms: _386  and  _387
REMARK  158  A    between atoms: _390  and  _392
REMARK  159  A    between atoms: _392  and  _393
REMARK  160  A    between atoms: _392  and  _395
REMARK  161  A    between atoms: _395  and  _396
REMARK  162  A    between atoms: _398  and  _400
REMARK  163  A    between atoms: _400  and  _401
REMARK  164  A    between atoms: _400  and  _403
REMARK  165  A    between atoms: _403  and  _404
REMARK  166  A    between atoms: _410  and  _412
REMARK  167  A    between atoms: _412  and  _413
REMARK  168  A    between atoms: _412  and  _415
REMARK  169  A    between atoms: _415  and  _416
REMARK  170  A    between atoms: _419  and  _421
REMARK  171  A    between atoms: _421  and  _422
REMARK  172  A    between atoms: _421  and  _424
REMARK  173  A    between atoms: _424  and  _425
REMARK  174  A    between atoms: _435  and  _437
REMARK  175  A    between atoms: _437  and  _438
REMARK  176  A    between atoms: _440  and  _442
REMARK  177  A    between atoms: _442  and  _443
REMARK  178  A    between atoms: _442  and  _445
REMARK  179  A    between atoms: _445  and  _446
REMARK  180  A    between atoms: _449  and  _451
REMARK  181  A    between atoms: _451  and  _452
REMARK  182  A    between atoms: _451  and  _454
REMARK  183  A    between atoms: _454  and  _455
REMARK  184  A    between atoms: _465  and  _467
REMARK  185  A    between atoms: _467  and  _468
REMARK  186  A    between atoms: _467  and  _470
REMARK  187  A    between atoms: _470  and  _471
REMARK  188  A    between atoms: _473  and  _475
REMARK  189  A    between atoms: _475  and  _476
REMARK  190  A    between atoms: _475  and  _478
REMARK  191  A    between atoms: _478  and  _479
REMARK  192  A    between atoms: _482  and  _484
REMARK  193  A    between atoms: _484  and  _485
REMARK  194  A    between atoms: _484  and  _487
REMARK  195  A    between atoms: _490  and  _492
REMARK  196  A    between atoms: _492  and  _493
REMARK  197  A    between atoms: _492  and  _495
REMARK  198  A    between atoms: _495  and  _496
REMARK  199  A    between atoms: _496  and  _497
REMARK  200  A    between atoms: _502  and  _504
REMARK  201  A    between atoms: _504  and  _505
REMARK  202  A    between atoms: _504  and  _507
REMARK  203  A    between atoms: _507  and  _508
REMARK  204  A    between atoms: _510  and  _512
REMARK  205  A    between atoms: _512  and  _513
REMARK  206  A    between atoms: _512  and  _515
REMARK  207  A    between atoms: _515  and  _516
REMARK  208  A    between atoms: _518  and  _520
REMARK  209  A    between atoms: _520  and  _521
REMARK  210  A    between atoms: _520  and  _523
REMARK  211  A    between atoms: _523  and  _524
REMARK  212  A    between atoms: _527  and  _529
REMARK  213  A    between atoms: _529  and  _530
REMARK  214  A    between atoms: _529  and  _532
REMARK  215  A    between atoms: _532  and  _533
REMARK  216  A    between atoms: _533  and  _534
REMARK  217  A    between atoms: _537  and  _539
REMARK  218  A    between atoms: _539  and  _540
REMARK  219  A    between atoms: _539  and  _542
REMARK  220  A    between atoms: _542  and  _543
REMARK  221  A    between atoms: _549  and  _551
REMARK  222  A    between atoms: _551  and  _552
REMARK  223  A    between atoms: _554  and  _556
REMARK  224  A    between atoms: _556  and  _557
REMARK  225  A    between atoms: _556  and  _559
REMARK  226  A    between atoms: _559  and  _560
REMARK  227  A    between atoms: _565  and  _566
REMARK  228  A    between atoms: _568  and  _570
REMARK  229  A    between atoms: _570  and  _571
REMARK  230  A    between atoms: _570  and  _573
REMARK  231  A    between atoms: _573  and  _574
REMARK  232  A    between atoms: _579  and  _580
REMARK  233  A    between atoms: _582  and  _584
REMARK  234  A    between atoms: _584  and  _585
REMARK  235  A    between atoms: _588  and  _590
REMARK  236  A    between atoms: _590  and  _591
REMARK  237  A    between atoms: _590  and  _593
REMARK  238  A    between atoms: _593  and  _594
REMARK  239  A    between atoms: _594  and  _595
REMARK  240  A    between atoms: _595  and  _596
REMARK                            x       y       z     vdW  Elec       q    Type
REMARK                         _______ _______ _______ _____ _____    ______ ____
ROOT
ATOM      1  O   HOH     1      11.287 -11.194   2.124  0.00  0.00    +0.000 OA
ENDROOT
TORSDOF 0
REMARK  Name = ../refined-set-2016/4cg8/4cg8_pocket.pdb
REMARK  240 active torsions:
REMARK  status: ('A' for Active; 'I' for Inactive)
REMARK    1  A    between atoms: _1  and  _3
REMARK    2  A    between atoms: _3  and  _4
REMARK    3  A    between atoms: _3  and  _6
REMARK    4  A    between atoms: _6  and  _7
REMARK    5  A    between atoms: _7  and  _8
REMARK    6  A    between atoms: _8  and  _9
REMARK    7  A    between atoms: _18  and  _20
REMARK    8  A    between atoms: _20  and  _21
REMARK    9  A    between atoms: _20  and  _23
REMARK   10  A    between atoms: _23  and  _24
REMARK   11  A    between atoms: _26  and  _28
REMARK   12  A    between atoms: _28  and  _29
REMARK   13  A    between atoms: _28  and  _31
REMARK   14  A    between atoms: _31  and  _32
REMARK   15  A    between atoms: _37  and  _39
REMARK   16  A    between atoms: _39  and  _40
REMARK   17  A    between atoms: _39  and  _42
REMARK   18  A    between atoms: _42  and  _43
REMARK   19  A    between atoms: _46  and  _48
REMARK   20  A    between atoms: _48  and  _49
REMARK   21  A    between atoms: _48  and  _51
REMARK   22  A    between atoms: _51  and  _52
REMARK   23  A    between atoms: _62  and  _64
REMARK   24  A    between atoms: _64  and  _65
REMARK   25  A    between atoms: _64  and  _67
REMARK   26  A    between atoms: _67  and  _68
REMARK   27  A    between atoms: _71  and  _73
REMARK   28  A    between atoms: _73  and  _74
REMARK   29  A    between atoms: _76  and  _78
REMARK   30  A    between atoms: _78  and  _79
REMARK   31  A    between atoms: _78  and  _81
REMARK   32  A    between atoms: _81  and  _82
REMARK   33  A    between atoms: _85  and  _87
REMARK   34  A    between atoms: _87  and  _88
REMARK   35  A    between atoms: _87  and  _90
REMARK   36  A    between atoms: _90  and  _91
REMARK   37  A    between atoms: _91  and  _92
REMARK   38  A    between atoms: _94  and  _96
REMARK   39  A    between atoms: _96  and  _97
REMARK   40  A    between atoms: _96  and  _99
REMARK   41  A    between atoms: _99  and  _100
REMARK   42  A    between atoms: _100  and  _101
REMARK   43  A    between atoms: _104  and  _106
REMARK   44  A    between atoms: _106  and  _107
REMARK   45  A    between atoms: _106  and  _109
REMARK   46  A    between atoms: _109  and  _110
REMARK   47  A    between atoms: _110  and  _111
REMARK   48  A    between atoms: _111  and  _112
REMARK   49  A    between atoms: _112  and  _113
REMARK   50  A    between atoms: _117  and  _119
REMARK   51  A    between atoms: _119  and  _120
REMARK   52  A    between atoms: _119  and  _122
REMARK   53  A    between atoms: _122  and  _123
REMARK   54  A    between atoms: _128  and  _129
REMARK   55  A    between atoms: _131  and  _133
REMARK   56  A    between atoms: _133  and  _134
REMARK   57  A    between atoms: _133  and  _136
REMARK   58  A    between atoms: _136  and  _137
REMARK   59  A    between atoms: _140  and  _142
REMARK   60  A    between atoms: _142  and  _143
REMARK   61  A    between atoms: _142  and  _145
REMARK   62  A    between atoms: _145  and  _146
REMARK   63  A    between atoms: _151  and  _153
REMARK   64  A    between atoms: _153  and  _154
REMARK   65  A    between atoms: _153  and  _156
REMARK   66  A    between atoms: _156  and  _157
REMARK   67  A    between atoms: _162  and  _164
REMARK   68  A    between atoms: _164  and  _165
REMARK   69  A    between atoms: _164  and  _167
REMARK   70  A    between atoms: _167  and  _168
REMARK   71  A    between atoms: _171  and  _173
REMARK   72  A    between atoms: _173  and  _174
REMARK   73  A    between atoms: _173  and  _176
REMARK   74  A    between atoms: _178  and  _180
REMARK   75  A    between atoms: _180  and  _181
REMARK   76  A    between atoms: _180  and  _183
REMARK   77  A    between atoms: _183  and  _184
REMARK   78  A    between atoms: _184  and  _185
REMARK   79  A    between atoms: _190  and  _192
REMARK   80  A    between atoms: _192  and  _193
REMARK   81  A    between atoms: _192  and  _195
REMARK   82  A    between atoms: _195  and  _196
REMARK   83  A    between atoms: _196  and  _197
REMARK   84  A    between atoms: _200  and  _202
REMARK   85  A    between atoms: _202  and  _203
REMARK   86  A    between atoms: _205  and  _207
REMARK   87  A    between atoms: _207  and  _208
REMARK   88  A    between atoms: _207  and  _210
REMARK   89  A    between atoms: _210  and  _211
REMARK   90  A    between atoms: _216  and  _218
REMARK   91  A    between atoms: _218  and  _219
REMARK   92  A    between atoms: _218  and  _221
REMARK   93  A    between atoms: _221  and  _222
REMARK   94  A    between atoms: _225  and  _227
REMARK   95  A    between atoms: _227  and  _228
REMARK   96  A    between atoms: _227  and  _230
REMARK   97  A    between atoms: _230  and  _231
REMARK   98  A    between atoms: _231  and  _232
REMARK   99  A    between atoms: _235  and  _237
REMARK  100  A    between atoms: _237  and  _238
REMARK  101  A    between atoms: _237  and  _240
REMARK  102  A    between atoms: _240  and  _241
REMARK  103  A    between atoms: _246  and  _247
REMARK  104  A    between atoms: _249  and  _251
REMARK  105  A    between atoms: _251  and  _252
REMARK  106  A    between atoms: _251  and  _254
REMARK  107  A    between atoms: _254  and  _255
REMARK  108  A    between atoms: _257  and  _259
REMARK  109  A    between atoms: _259  and  _260
REMARK  110  A    between atoms: _259  and  _262
REMARK  111  A    between atoms: _262  and  _263
REMARK  112  A    between atoms: _268  and  _270
REMARK  113  A    between atoms: _270  and  _271
REMARK  114  A    between atoms: _270  and  _273
REMARK  115  A    between atoms: _273  and  _274
REMARK  116  A    between atoms: _280  and  _282
REMARK  117  A    between atoms: _282  and  _283
REMARK  118  A    between atoms: _282  and  _285
REMARK  119  A    between atoms: _285  and  _286
REMARK  120  A    between atoms: _291  and  _293
REMARK  121  A    between atoms: _293  and  _294
REMARK  122  A    between atoms: _293  and  _296
REMARK  123  A    between atoms: _296  and  _297
REMARK  124  A    between atoms: _297  and  _298
REMARK  125  A    between atoms: _301  and  _303
REMARK  126  A    between atoms: _303  and  _304
REMARK  127  A    between atoms: _303  and  _306
REMARK  128  A    between atoms: _306  and  _307
REMARK  129  A    between atoms: _312  and  _313
REMARK  130  A    between atoms: _315  and  _317
REMARK  131  A    between atoms: _317  and  _318
REMARK  132  A    between atoms: _317  and  _320
REMARK  133  A    between atoms: _320  and  _321
REMARK  134  A    between atoms: _324  and  _326
REMARK  135  A    between atoms: _326  and  _327
REMARK  136  A    between atoms: _326  and  _329
REMARK  137  A    between atoms: _329  and  _330
REMARK  138  A    between atoms: _335  and  _336
REMARK  139  A    between atoms: _338  and  _340
REMARK  140  A    between atoms: _340  and  _341
REMARK  141  A    between atoms: _340  and  _343
REMARK  142  A    between atoms: _343  and  _344
REMARK  143  A    between atoms: _346  and  _348
REMARK  144  A    between atoms: _348  and  _349
REMARK  145  A    between atoms: _348  and  _351
REMARK  146  A    between atoms: _351  and  _352
REMARK  147  A    between atoms: _357  and  _358
REMARK  148  A    between atoms: _360  and  _362
REMARK  149  A    between atoms: _362  and  _363
REMARK  150  A    between atoms: _362  and  _365
REMARK  151  A    between atoms: _365  and  _366
REMARK  152  A    between atoms: _372  and  _374
REMARK  153  A    between atoms: _374  and  _375
REMARK  154  A    between atoms: _374  and  _377
REMARK  155  A    between atoms: _377  and  _378
REMARK  156  A    between atoms: _384  and  _386
REMARK  157  A    between atoms: _386  and  _387
REMARK  158  A    between atoms: _390  and  _392
REMARK  159  A    between atoms: _392  and  _393
REMARK  160  A    between atoms: _392  and  _395
REMARK  161  A    between atoms: _395  and  _396
REMARK  162  A    between atoms: _398  and  _400
REMARK  163  A    between atoms: _400  and  _401
REMARK  164  A    between atoms: _400  and  _403
REMARK  165  A    between atoms: _403  and  _404
REMARK  166  A    between atoms: _410  and  _412
REMARK  167  A    between atoms: _412  and  _413
REMARK  168  A    between atoms: _412  and  _415
REMARK  169  A    between atoms: _415  and  _416
REMARK  170  A    between atoms: _419  and  _421
REMARK  171  A    between atoms: _421  and  _422
REMARK  172  A    between atoms: _421  and  _424
REMARK  173  A    between atoms: _424  and  _425
REMARK  174  A    between atoms: _435  and  _437
REMARK  175  A    between atoms: _437  and  _438
REMARK  176  A    between atoms: _440  and  _442
REMARK  177  A    between atoms: _442  and  _443
REMARK  178  A    between atoms: _442  and  _445
REMARK  179  A    between atoms: _445  and  _446
REMARK  180  A    between atoms: _449  and  _451
REMARK  181  A    between atoms: _451  and  _452
REMARK  182  A    between atoms: _451  and  _454
REMARK  183  A    between atoms: _454  and  _455
REMARK  184  A    between atoms: _465  and  _467
REMARK  185  A    between atoms: _467  and  _468
REMARK  186  A    between atoms: _467  and  _470
REMARK  187  A    between atoms: _470  and  _471
REMARK  188  A    between atoms: _473  and  _475
REMARK  189  A    between atoms: _475  and  _476
REMARK  190  A    between atoms: _475  and  _478
REMARK  191  A    between atoms: _478  and  _479
REMARK  192  A    between atoms: _482  and  _484
REMARK  193  A    between atoms: _484  and  _485
REMARK  194  A    between atoms: _484  and  _487
REMARK  195  A    between atoms: _490  and  _492
REMARK  196  A    between atoms: _492  and  _493
REMARK  197  A    between atoms: _492  and  _495
REMARK  198  A    between atoms: _495  and  _496
REMARK  199  A    between atoms: _496  and  _497
REMARK  200  A    between atoms: _502  and  _504
REMARK  201  A    between atoms: _504  and  _505
REMARK  202  A    between atoms: _504  and  _507
REMARK  203  A    between atoms: _507  and  _508
REMARK  204  A    between atoms: _510  and  _512
REMARK  205  A    between atoms: _512  and  _513
REMARK  206  A    between atoms: _512  and  _515
REMARK  207  A    between atoms: _515  and  _516
REMARK  208  A    between atoms: _518  and  _520
REMARK  209  A    between atoms: _520  and  _521
REMARK  210  A    between atoms: _520  and  _523
REMARK  211  A    between atoms: _523  and  _524
REMARK  212  A    between atoms: _527  and  _529
REMARK  213  A    between atoms: _529  and  _530
REMARK  214  A    between atoms: _529  and  _532
REMARK  215  A    between atoms: _532  and  _533
REMARK  216  A    between atoms: _533  and  _534
REMARK  217  A    between atoms: _537  and  _539
REMARK  218  A    between atoms: _539  and  _540
REMARK  219  A    between atoms: _539  and  _542
REMARK  220  A    between atoms: _542  and  _543
REMARK  221  A    between atoms: _549  and  _551
REMARK  222  A    between atoms: _551  and  _552
REMARK  223  A    between atoms: _554  and  _556
REMARK  224  A    between atoms: _556  and  _557
REMARK  225  A    between atoms: _556  and  _559
REMARK  226  A    between atoms: _559  and  _560
REMARK  227  A    between atoms: _565  and  _566
REMARK  228  A    between atoms: _568  and  _570
REMARK  229  A    between atoms: _570  and  _571
REMARK  230  A    between atoms: _570  and  _573
REMARK  231  A    between atoms: _573  and  _574
REMARK  232  A    between atoms: _579  and  _580
REMARK  233  A    between atoms: _582  and  _584
REMARK  234  A    between atoms: _584  and  _585
REMARK  235  A    between atoms: _588  and  _590
REMARK  236  A    between atoms: _590  and  _591
REMARK  237  A    between atoms: _590  and  _593
REMARK  238  A    between atoms: _593  and  _594
REMARK  239  A    between atoms: _594  and  _595
REMARK  240  A    between atoms: _595  and  _596
REMARK                            x       y       z     vdW  Elec       q    Type
REMARK                         _______ _______ _______ _____ _____    ______ ____
ROOT
ATOM      1  O   HOH     1       9.463 -12.556   0.458  0.00  0.00    +0.000 OA
ENDROOT
TORSDOF 0
REMARK  Name = ../refined-set-2016/4cg8/4cg8_pocket.pdb
REMARK  240 active torsions:
REMARK  status: ('A' for Active; 'I' for Inactive)
REMARK    1  A    between atoms: _1  and  _3
REMARK    2  A    between atoms: _3  and  _4
REMARK    3  A    between atoms: _3  and  _6
REMARK    4  A    between atoms: _6  and  _7
REMARK    5  A    between atoms: _7  and  _8
REMARK    6  A    between atoms: _8  and  _9
REMARK    7  A    between atoms: _18  and  _20
REMARK    8  A    between atoms: _20  and  _21
REMARK    9  A    between atoms: _20  and  _23
REMARK   10  A    between atoms: _23  and  _24
REMARK   11  A    between atoms: _26  and  _28
REMARK   12  A    between atoms: _28  and  _29
REMARK   13  A    between atoms: _28  and  _31
REMARK   14  A    between atoms: _31  and  _32
REMARK   15  A    between atoms: _37  and  _39
REMARK   16  A    between atoms: _39  and  _40
REMARK   17  A    between atoms: _39  and  _42
REMARK   18  A    between atoms: _42  and  _43
REMARK   19  A    between atoms: _46  and  _48
REMARK   20  A    between atoms: _48  and  _49
REMARK   21  A    between atoms: _48  and  _51
REMARK   22  A    between atoms: _51  and  _52
REMARK   23  A    between atoms: _62  and  _64
REMARK   24  A    between atoms: _64  and  _65
REMARK   25  A    between atoms: _64  and  _67
REMARK   26  A    between atoms: _67  and  _68
REMARK   27  A    between atoms: _71  and  _73
REMARK   28  A    between atoms: _73  and  _74
REMARK   29  A    between atoms: _76  and  _78
REMARK   30  A    between atoms: _78  and  _79
REMARK   31  A    between atoms: _78  and  _81
REMARK   32  A    between atoms: _81  and  _82
REMARK   33  A    between atoms: _85  and  _87
REMARK   34  A    between atoms: _87  and  _88
REMARK   35  A    between atoms: _87  and  _90
REMARK   36  A    between atoms: _90  and  _91
REMARK   37  A    between atoms: _91  and  _92
REMARK   38  A    between atoms: _94  and  _96
REMARK   39  A    between atoms: _96  and  _97
REMARK   40  A    between atoms: _96  and  _99
REMARK   41  A    between atoms: _99  and  _100
REMARK   42  A    between atoms: _100  and  _101
REMARK   43  A    between atoms: _104  and  _106
REMARK   44  A    between atoms: _106  and  _107
REMARK   45  A    between atoms: _106  and  _109
REMARK   46  A    between atoms: _109  and  _110
REMARK   47  A    between atoms: _110  and  _111
REMARK   48  A    between atoms: _111  and  _112
REMARK   49  A    between atoms: _112  and  _113
REMARK   50  A    between atoms: _117  and  _119
REMARK   51  A    between atoms: _119  and  _120
REMARK   52  A    between atoms: _119  and  _122
REMARK   53  A    between atoms: _122  and  _123
REMARK   54  A    between atoms: _128  and  _129
REMARK   55  A    between atoms: _131  and  _133
REMARK   56  A    between atoms: _133  and  _134
REMARK   57  A    between atoms: _133  and  _136
REMARK   58  A    between atoms: _136  and  _137
REMARK   59  A    between atoms: _140  and  _142
REMARK   60  A    between atoms: _142  and  _143
REMARK   61  A    between atoms: _142  and  _145
REMARK   62  A    between atoms: _145  and  _146
REMARK   63  A    between atoms: _151  and  _153
REMARK   64  A    between atoms: _153  and  _154
REMARK   65  A    between atoms: _153  and  _156
REMARK   66  A    between atoms: _156  and  _157
REMARK   67  A    between atoms: _162  and  _164
REMARK   68  A    between atoms: _164  and  _165
REMARK   69  A    between atoms: _164  and  _167
REMARK   70  A    between atoms: _167  and  _168
REMARK   71  A    between atoms: _171  and  _173
REMARK   72  A    between atoms: _173  and  _174
REMARK   73  A    between atoms: _173  and  _176
REMARK   74  A    between atoms: _178  and  _180
REMARK   75  A    between atoms: _180  and  _181
REMARK   76  A    between atoms: _180  and  _183
REMARK   77  A    between atoms: _183  and  _184
REMARK   78  A    between atoms: _184  and  _185
REMARK   79  A    between atoms: _190  and  _192
REMARK   80  A    between atoms: _192  and  _193
REMARK   81  A    between atoms: _192  and  _195
REMARK   82  A    between atoms: _195  and  _196
REMARK   83  A    between atoms: _196  and  _197
REMARK   84  A    between atoms: _200  and  _202
REMARK   85  A    between atoms: _202  and  _203
REMARK   86  A    between atoms: _205  and  _207
REMARK   87  A    between atoms: _207  and  _208
REMARK   88  A    between atoms: _207  and  _210
REMARK   89  A    between atoms: _210  and  _211
REMARK   90  A    between atoms: _216  and  _218
REMARK   91  A    between atoms: _218  and  _219
REMARK   92  A    between atoms: _218  and  _221
REMARK   93  A    between atoms: _221  and  _222
REMARK   94  A    between atoms: _225  and  _227
REMARK   95  A    between atoms: _227  and  _228
REMARK   96  A    between atoms: _227  and  _230
REMARK   97  A    between atoms: _230  and  _231
REMARK   98  A    between atoms: _231  and  _232
REMARK   99  A    between atoms: _235  and  _237
REMARK  100  A    between atoms: _237  and  _238
REMARK  101  A    between atoms: _237  and  _240
REMARK  102  A    between atoms: _240  and  _241
REMARK  103  A    between atoms: _246  and  _247
REMARK  104  A    between atoms: _249  and  _251
REMARK  105  A    between atoms: _251  and  _252
REMARK  106  A    between atoms: _251  and  _254
REMARK  107  A    between atoms: _254  and  _255
REMARK  108  A    between atoms: _257  and  _259
REMARK  109  A    between atoms: _259  and  _260
REMARK  110  A    between atoms: _259  and  _262
REMARK  111  A    between atoms: _262  and  _263
REMARK  112  A    between atoms: _268  and  _270
REMARK  113  A    between atoms: _270  and  _271
REMARK  114  A    between atoms: _270  and  _273
REMARK  115  A    between atoms: _273  and  _274
REMARK  116  A    between atoms: _280  and  _282
REMARK  117  A    between atoms: _282  and  _283
REMARK  118  A    between atoms: _282  and  _285
REMARK  119  A    between atoms: _285  and  _286
REMARK  120  A    between atoms: _291  and  _293
REMARK  121  A    between atoms: _293  and  _294
REMARK  122  A    between atoms: _293  and  _296
REMARK  123  A    between atoms: _296  and  _297
REMARK  124  A    between atoms: _297  and  _298
REMARK  125  A    between atoms: _301  and  _303
REMARK  126  A    between atoms: _303  and  _304
REMARK  127  A    between atoms: _303  and  _306
REMARK  128  A    between atoms: _306  and  _307
REMARK  129  A    between atoms: _312  and  _313
REMARK  130  A    between atoms: _315  and  _317
REMARK  131  A    between atoms: _317  and  _318
REMARK  132  A    between atoms: _317  and  _320
REMARK  133  A    between atoms: _320  and  _321
REMARK  134  A    between atoms: _324  and  _326
REMARK  135  A    between atoms: _326  and  _327
REMARK  136  A    between atoms: _326  and  _329
REMARK  137  A    between atoms: _329  and  _330
REMARK  138  A    between atoms: _335  and  _336
REMARK  139  A    between atoms: _338  and  _340
REMARK  140  A    between atoms: _340  and  _341
REMARK  141  A    between atoms: _340  and  _343
REMARK  142  A    between atoms: _343  and  _344
REMARK  143  A    between atoms: _346  and  _348
REMARK  144  A    between atoms: _348  and  _349
REMARK  145  A    between atoms: _348  and  _351
REMARK  146  A    between atoms: _351  and  _352
REMARK  147  A    between atoms: _357  and  _358
REMARK  148  A    between atoms: _360  and  _362
REMARK  149  A    between atoms: _362  and  _363
REMARK  150  A    between atoms: _362  and  _365
REMARK  151  A    between atoms: _365  and  _366
REMARK  152  A    between atoms: _372  and  _374
REMARK  153  A    between atoms: _374  and  _375
REMARK  154  A    between atoms: _374  and  _377
REMARK  155  A    between atoms: _377  and  _378
REMARK  156  A    between atoms: _384  and  _386
REMARK  157  A    between atoms: _386  and  _387
REMARK  158  A    between atoms: _390  and  _392
REMARK  159  A    between atoms: _392  and  _393
REMARK  160  A    between atoms: _392  and  _395
REMARK  161  A    between atoms: _395  and  _396
REMARK  162  A    between atoms: _398  and  _400
REMARK  163  A    between atoms: _400  and  _401
REMARK  164  A    between atoms: _400  and  _403
REMARK  165  A    between atoms: _403  and  _404
REMARK  166  A    between atoms: _410  and  _412
REMARK  167  A    between atoms: _412  and  _413
REMARK  168  A    between atoms: _412  and  _415
REMARK  169  A    between atoms: _415  and  _416
REMARK  170  A    between atoms: _419  and  _421
REMARK  171  A    between atoms: _421  and  _422
REMARK  172  A    between atoms: _421  and  _424
REMARK  173  A    between atoms: _424  and  _425
REMARK  174  A    between atoms: _435  and  _437
REMARK  175  A    between atoms: _437  and  _438
REMARK  176  A    between atoms: _440  and  _442
REMARK  177  A    between atoms: _442  and  _443
REMARK  178  A    between atoms: _442  and  _445
REMARK  179  A    between atoms: _445  and  _446
REMARK  180  A    between atoms: _449  and  _451
REMARK  181  A    between atoms: _451  and  _452
REMARK  182  A    between atoms: _451  and  _454
REMARK  183  A    between atoms: _454  and  _455
REMARK  184  A    between atoms: _465  and  _467
REMARK  185  A    between atoms: _467  and  _468
REMARK  186  A    between atoms: _467  and  _470
REMARK  187  A    between atoms: _470  and  _471
REMARK  188  A    between atoms: _473  and  _475
REMARK  189  A    between atoms: _475  and  _476
REMARK  190  A    between atoms: _475  and  _478
REMARK  191  A    between atoms: _478  and  _479
REMARK  192  A    between atoms: _482  and  _484
REMARK  193  A    between atoms: _484  and  _485
REMARK  194  A    between atoms: _484  and  _487
REMARK  195  A    between atoms: _490  and  _492
REMARK  196  A    between atoms: _492  and  _493
REMARK  197  A    between atoms: _492  and  _495
REMARK  198  A    between atoms: _495  and  _496
REMARK  199  A    between atoms: _496  and  _497
REMARK  200  A    between atoms: _502  and  _504
REMARK  201  A    between atoms: _504  and  _505
REMARK  202  A    between atoms: _504  and  _507
REMARK  203  A    between atoms: _507  and  _508
REMARK  204  A    between atoms: _510  and  _512
REMARK  205  A    between atoms: _512  and  _513
REMARK  206  A    between atoms: _512  and  _515
REMARK  207  A    between atoms: _515  and  _516
REMARK  208  A    between atoms: _518  and  _520
REMARK  209  A    between atoms: _520  and  _521
REMARK  210  A    between atoms: _520  and  _523
REMARK  211  A    between atoms: _523  and  _524
REMARK  212  A    between atoms: _527  and  _529
REMARK  213  A    between atoms: _529  and  _530
REMARK  214  A    between atoms: _529  and  _532
REMARK  215  A    between atoms: _532  and  _533
REMARK  216  A    between atoms: _533  and  _534
REMARK  217  A    between atoms: _537  and  _539
REMARK  218  A    between atoms: _539  and  _540
REMARK  219  A    between atoms: _539  and  _542
REMARK  220  A    between atoms: _542  and  _543
REMARK  221  A    between atoms: _549  and  _551
REMARK  222  A    between atoms: _551  and  _552
REMARK  223  A    between atoms: _554  and  _556
REMARK  224  A    between atoms: _556  and  _557
REMARK  225  A    between atoms: _556  and  _559
REMARK  226  A    between atoms: _559  and  _560
REMARK  227  A    between atoms: _565  and  _566
REMARK  228  A    between atoms: _568  and  _570
REMARK  229  A    between atoms: _570  and  _571
REMARK  230  A    between atoms: _570  and  _573
REMARK  231  A    between atoms: _573  and  _574
REMARK  232  A    between atoms: _579  and  _580
REMARK  233  A    between atoms: _582  and  _584
REMARK  234  A    between atoms: _584  and  _585
REMARK  235  A    between atoms: _588  and  _590
REMARK  236  A    between atoms: _590  and  _591
REMARK  237  A    between atoms: _590  and  _593
REMARK  238  A    between atoms: _593  and  _594
REMARK  239  A    between atoms: _594  and  _595
REMARK  240  A    between atoms: _595  and  _596
REMARK                            x       y       z     vdW  Elec       q    Type
REMARK                         _______ _______ _______ _____ _____    ______ ____
ROOT
ATOM      1  O   HOH     1       7.280 -10.179  -0.005  0.00  0.00    +0.000 OA
ENDROOT
TORSDOF 0
REMARK  Name = ../refined-set-2016/4cg8/4cg8_pocket.pdb
REMARK  240 active torsions:
REMARK  status: ('A' for Active; 'I' for Inactive)
REMARK    1  A    between atoms: _1  and  _3
REMARK    2  A    between atoms: _3  and  _4
REMARK    3  A    between atoms: _3  and  _6
REMARK    4  A    between atoms: _6  and  _7
REMARK    5  A    between atoms: _7  and  _8
REMARK    6  A    between atoms: _8  and  _9
REMARK    7  A    between atoms: _18  and  _20
REMARK    8  A    between atoms: _20  and  _21
REMARK    9  A    between atoms: _20  and  _23
REMARK   10  A    between atoms: _23  and  _24
REMARK   11  A    between atoms: _26  and  _28
REMARK   12  A    between atoms: _28  and  _29
REMARK   13  A    between atoms: _28  and  _31
REMARK   14  A    between atoms: _31  and  _32
REMARK   15  A    between atoms: _37  and  _39
REMARK   16  A    between atoms: _39  and  _40
REMARK   17  A    between atoms: _39  and  _42
REMARK   18  A    between atoms: _42  and  _43
REMARK   19  A    between atoms: _46  and  _48
REMARK   20  A    between atoms: _48  and  _49
REMARK   21  A    between atoms: _48  and  _51
REMARK   22  A    between atoms: _51  and  _52
REMARK   23  A    between atoms: _62  and  _64
REMARK   24  A    between atoms: _64  and  _65
REMARK   25  A    between atoms: _64  and  _67
REMARK   26  A    between atoms: _67  and  _68
REMARK   27  A    between atoms: _71  and  _73
REMARK   28  A    between atoms: _73  and  _74
REMARK   29  A    between atoms: _76  and  _78
REMARK   30  A    between atoms: _78  and  _79
REMARK   31  A    between atoms: _78  and  _81
REMARK   32  A    between atoms: _81  and  _82
REMARK   33  A    between atoms: _85  and  _87
REMARK   34  A    between atoms: _87  and  _88
REMARK   35  A    between atoms: _87  and  _90
REMARK   36  A    between atoms: _90  and  _91
REMARK   37  A    between atoms: _91  and  _92
REMARK   38  A    between atoms: _94  and  _96
REMARK   39  A    between atoms: _96  and  _97
REMARK   40  A    between atoms: _96  and  _99
REMARK   41  A    between atoms: _99  and  _100
REMARK   42  A    between atoms: _100  and  _101
REMARK   43  A    between atoms: _104  and  _106
REMARK   44  A    between atoms: _106  and  _107
REMARK   45  A    between atoms: _106  and  _109
REMARK   46  A    between atoms: _109  and  _110
REMARK   47  A    between atoms: _110  and  _111
REMARK   48  A    between atoms: _111  and  _112
REMARK   49  A    between atoms: _112  and  _113
REMARK   50  A    between atoms: _117  and  _119
REMARK   51  A    between atoms: _119  and  _120
REMARK   52  A    between atoms: _119  and  _122
REMARK   53  A    between atoms: _122  and  _123
REMARK   54  A    between atoms: _128  and  _129
REMARK   55  A    between atoms: _131  and  _133
REMARK   56  A    between atoms: _133  and  _134
REMARK   57  A    between atoms: _133  and  _136
REMARK   58  A    between atoms: _136  and  _137
REMARK   59  A    between atoms: _140  and  _142
REMARK   60  A    between atoms: _142  and  _143
REMARK   61  A    between atoms: _142  and  _145
REMARK   62  A    between atoms: _145  and  _146
REMARK   63  A    between atoms: _151  and  _153
REMARK   64  A    between atoms: _153  and  _154
REMARK   65  A    between atoms: _153  and  _156
REMARK   66  A    between atoms: _156  and  _157
REMARK   67  A    between atoms: _162  and  _164
REMARK   68  A    between atoms: _164  and  _165
REMARK   69  A    between atoms: _164  and  _167
REMARK   70  A    between atoms: _167  and  _168
REMARK   71  A    between atoms: _171  and  _173
REMARK   72  A    between atoms: _173  and  _174
REMARK   73  A    between atoms: _173  and  _176
REMARK   74  A    between atoms: _178  and  _180
REMARK   75  A    between atoms: _180  and  _181
REMARK   76  A    between atoms: _180  and  _183
REMARK   77  A    between atoms: _183  and  _184
REMARK   78  A    between atoms: _184  and  _185
REMARK   79  A    between atoms: _190  and  _192
REMARK   80  A    between atoms: _192  and  _193
REMARK   81  A    between atoms: _192  and  _195
REMARK   82  A    between atoms: _195  and  _196
REMARK   83  A    between atoms: _196  and  _197
REMARK   84  A    between atoms: _200  and  _202
REMARK   85  A    between atoms: _202  and  _203
REMARK   86  A    between atoms: _205  and  _207
REMARK   87  A    between atoms: _207  and  _208
REMARK   88  A    between atoms: _207  and  _210
REMARK   89  A    between atoms: _210  and  _211
REMARK   90  A    between atoms: _216  and  _218
REMARK   91  A    between atoms: _218  and  _219
REMARK   92  A    between atoms: _218  and  _221
REMARK   93  A    between atoms: _221  and  _222
REMARK   94  A    between atoms: _225  and  _227
REMARK   95  A    between atoms: _227  and  _228
REMARK   96  A    between atoms: _227  and  _230
REMARK   97  A    between atoms: _230  and  _231
REMARK   98  A    between atoms: _231  and  _232
REMARK   99  A    between atoms: _235  and  _237
REMARK  100  A    between atoms: _237  and  _238
REMARK  101  A    between atoms: _237  and  _240
REMARK  102  A    between atoms: _240  and  _241
REMARK  103  A    between atoms: _246  and  _247
REMARK  104  A    between atoms: _249  and  _251
REMARK  105  A    between atoms: _251  and  _252
REMARK  106  A    between atoms: _251  and  _254
REMARK  107  A    between atoms: _254  and  _255
REMARK  108  A    between atoms: _257  and  _259
REMARK  109  A    between atoms: _259  and  _260
REMARK  110  A    between atoms: _259  and  _262
REMARK  111  A    between atoms: _262  and  _263
REMARK  112  A    between atoms: _268  and  _270
REMARK  113  A    between atoms: _270  and  _271
REMARK  114  A    between atoms: _270  and  _273
REMARK  115  A    between atoms: _273  and  _274
REMARK  116  A    between atoms: _280  and  _282
REMARK  117  A    between atoms: _282  and  _283
REMARK  118  A    between atoms: _282  and  _285
REMARK  119  A    between atoms: _285  and  _286
REMARK  120  A    between atoms: _291  and  _293
REMARK  121  A    between atoms: _293  and  _294
REMARK  122  A    between atoms: _293  and  _296
REMARK  123  A    between atoms: _296  and  _297
REMARK  124  A    between atoms: _297  and  _298
REMARK  125  A    between atoms: _301  and  _303
REMARK  126  A    between atoms: _303  and  _304
REMARK  127  A    between atoms: _303  and  _306
REMARK  128  A    between atoms: _306  and  _307
REMARK  129  A    between atoms: _312  and  _313
REMARK  130  A    between atoms: _315  and  _317
REMARK  131  A    between atoms: _317  and  _318
REMARK  132  A    between atoms: _317  and  _320
REMARK  133  A    between atoms: _320  and  _321
REMARK  134  A    between atoms: _324  and  _326
REMARK  135  A    between atoms: _326  and  _327
REMARK  136  A    between atoms: _326  and  _329
REMARK  137  A    between atoms: _329  and  _330
REMARK  138  A    between atoms: _335  and  _336
REMARK  139  A    between atoms: _338  and  _340
REMARK  140  A    between atoms: _340  and  _341
REMARK  141  A    between atoms: _340  and  _343
REMARK  142  A    between atoms: _343  and  _344
REMARK  143  A    between atoms: _346  and  _348
REMARK  144  A    between atoms: _348  and  _349
REMARK  145  A    between atoms: _348  and  _351
REMARK  146  A    between atoms: _351  and  _352
REMARK  147  A    between atoms: _357  and  _358
REMARK  148  A    between atoms: _360  and  _362
REMARK  149  A    between atoms: _362  and  _363
REMARK  150  A    between atoms: _362  and  _365
REMARK  151  A    between atoms: _365  and  _366
REMARK  152  A    between atoms: _372  and  _374
REMARK  153  A    between atoms: _374  and  _375
REMARK  154  A    between atoms: _374  and  _377
REMARK  155  A    between atoms: _377  and  _378
REMARK  156  A    between atoms: _384  and  _386
REMARK  157  A    between atoms: _386  and  _387
REMARK  158  A    between atoms: _390  and  _392
REMARK  159  A    between atoms: _392  and  _393
REMARK  160  A    between atoms: _392  and  _395
REMARK  161  A    between atoms: _395  and  _396
REMARK  162  A    between atoms: _398  and  _400
REMARK  163  A    between atoms: _400  and  _401
REMARK  164  A    between atoms: _400  and  _403
REMARK  165  A    between atoms: _403  and  _404
REMARK  166  A    between atoms: _410  and  _412
REMARK  167  A    between atoms: _412  and  _413
REMARK  168  A    between atoms: _412  and  _415
REMARK  169  A    between atoms: _415  and  _416
REMARK  170  A    between atoms: _419  and  _421
REMARK  171  A    between atoms: _421  and  _422
REMARK  172  A    between atoms: _421  and  _424
REMARK  173  A    between atoms: _424  and  _425
REMARK  174  A    between atoms: _435  and  _437
REMARK  175  A    between atoms: _437  and  _438
REMARK  176  A    between atoms: _440  and  _442
REMARK  177  A    between atoms: _442  and  _443
REMARK  178  A    between atoms: _442  and  _445
REMARK  179  A    between atoms: _445  and  _446
REMARK  180  A    between atoms: _449  and  _451
REMARK  181  A    between atoms: _451  and  _452
REMARK  182  A    between atoms: _451  and  _454
REMARK  183  A    between atoms: _454  and  _455
REMARK  184  A    between atoms: _465  and  _467
REMARK  185  A    between atoms: _467  and  _468
REMARK  186  A    between atoms: _467  and  _470
REMARK  187  A    between atoms: _470  and  _471
REMARK  188  A    between atoms: _473  and  _475
REMARK  189  A    between atoms: _475  and  _476
REMARK  190  A    between atoms: _475  and  _478
REMARK  191  A    between atoms: _478  and  _479
REMARK  192  A    between atoms: _482  and  _484
REMARK  193  A    between atoms: _484  and  _485
REMARK  194  A    between atoms: _484  and  _487
REMARK  195  A    between atoms: _490  and  _492
REMARK  196  A    between atoms: _492  and  _493
REMARK  197  A    between atoms: _492  and  _495
REMARK  198  A    between atoms: _495  and  _496
REMARK  199  A    between atoms: _496  and  _497
REMARK  200  A    between atoms: _502  and  _504
REMARK  201  A    between atoms: _504  and  _505
REMARK  202  A    between atoms: _504  and  _507
REMARK  203  A    between atoms: _507  and  _508
REMARK  204  A    between atoms: _510  and  _512
REMARK  205  A    between atoms: _512  and  _513
REMARK  206  A    between atoms: _512  and  _515
REMARK  207  A    between atoms: _515  and  _516
REMARK  208  A    between atoms: _518  and  _520
REMARK  209  A    between atoms: _520  and  _521
REMARK  210  A    between atoms: _520  and  _523
REMARK  211  A    between atoms: _523  and  _524
REMARK  212  A    between atoms: _527  and  _529
REMARK  213  A    between atoms: _529  and  _530
REMARK  214  A    between atoms: _529  and  _532
REMARK  215  A    between atoms: _532  and  _533
REMARK  216  A    between atoms: _533  and  _534
REMARK  217  A    between atoms: _537  and  _539
REMARK  218  A    between atoms: _539  and  _540
REMARK  219  A    between atoms: _539  and  _542
REMARK  220  A    between atoms: _542  and  _543
REMARK  221  A    between atoms: _549  and  _551
REMARK  222  A    between atoms: _551  and  _552
REMARK  223  A    between atoms: _554  and  _556
REMARK  224  A    between atoms: _556  and  _557
REMARK  225  A    between atoms: _556  and  _559
REMARK  226  A    between atoms: _559  and  _560
REMARK  227  A    between atoms: _565  and  _566
REMARK  228  A    between atoms: _568  and  _570
REMARK  229  A    between atoms: _570  and  _571
REMARK  230  A    between atoms: _570  and  _573
REMARK  231  A    between atoms: _573  and  _574
REMARK  232  A    between atoms: _579  and  _580
REMARK  233  A    between atoms: _582  and  _584
REMARK  234  A    between atoms: _584  and  _585
REMARK  235  A    between atoms: _588  and  _590
REMARK  236  A    between atoms: _590  and  _591
REMARK  237  A    between atoms: _590  and  _593
REMARK  238  A    between atoms: _593  and  _594
REMARK  239  A    between atoms: _594  and  _595
REMARK  240  A    between atoms: _595  and  _596
REMARK                            x       y       z     vdW  Elec       q    Type
REMARK                         _______ _______ _______ _____ _____    ______ ____
ROOT
ATOM      1  O   HOH     1       8.985  -9.302   3.805  0.00  0.00    +0.000 OA
ENDROOT
TORSDOF 0
REMARK  Name = ../refined-set-2016/4cg8/4cg8_pocket.pdb
REMARK  240 active torsions:
REMARK  status: ('A' for Active; 'I' for Inactive)
REMARK    1  A    between atoms: _1  and  _3
REMARK    2  A    between atoms: _3  and  _4
REMARK    3  A    between atoms: _3  and  _6
REMARK    4  A    between atoms: _6  and  _7
REMARK    5  A    between atoms: _7  and  _8
REMARK    6  A    between atoms: _8  and  _9
REMARK    7  A    between atoms: _18  and  _20
REMARK    8  A    between atoms: _20  and  _21
REMARK    9  A    between atoms: _20  and  _23
REMARK   10  A    between atoms: _23  and  _24
REMARK   11  A    between atoms: _26  and  _28
REMARK   12  A    between atoms: _28  and  _29
REMARK   13  A    between atoms: _28  and  _31
REMARK   14  A    between atoms: _31  and  _32
REMARK   15  A    between atoms: _37  and  _39
REMARK   16  A    between atoms: _39  and  _40
REMARK   17  A    between atoms: _39  and  _42
REMARK   18  A    between atoms: _42  and  _43
REMARK   19  A    between atoms: _46  and  _48
REMARK   20  A    between atoms: _48  and  _49
REMARK   21  A    between atoms: _48  and  _51
REMARK   22  A    between atoms: _51  and  _52
REMARK   23  A    between atoms: _62  and  _64
REMARK   24  A    between atoms: _64  and  _65
REMARK   25  A    between atoms: _64  and  _67
REMARK   26  A    between atoms: _67  and  _68
REMARK   27  A    between atoms: _71  and  _73
REMARK   28  A    between atoms: _73  and  _74
REMARK   29  A    between atoms: _76  and  _78
REMARK   30  A    between atoms: _78  and  _79
REMARK   31  A    between atoms: _78  and  _81
REMARK   32  A    between atoms: _81  and  _82
REMARK   33  A    between atoms: _85  and  _87
REMARK   34  A    between atoms: _87  and  _88
REMARK   35  A    between atoms: _87  and  _90
REMARK   36  A    between atoms: _90  and  _91
REMARK   37  A    between atoms: _91  and  _92
REMARK   38  A    between atoms: _94  and  _96
REMARK   39  A    between atoms: _96  and  _97
REMARK   40  A    between atoms: _96  and  _99
REMARK   41  A    between atoms: _99  and  _100
REMARK   42  A    between atoms: _100  and  _101
REMARK   43  A    between atoms: _104  and  _106
REMARK   44  A    between atoms: _106  and  _107
REMARK   45  A    between atoms: _106  and  _109
REMARK   46  A    between atoms: _109  and  _110
REMARK   47  A    between atoms: _110  and  _111
REMARK   48  A    between atoms: _111  and  _112
REMARK   49  A    between atoms: _112  and  _113
REMARK   50  A    between atoms: _117  and  _119
REMARK   51  A    between atoms: _119  and  _120
REMARK   52  A    between atoms: _119  and  _122
REMARK   53  A    between atoms: _122  and  _123
REMARK   54  A    between atoms: _128  and  _129
REMARK   55  A    between atoms: _131  and  _133
REMARK   56  A    between atoms: _133  and  _134
REMARK   57  A    between atoms: _133  and  _136
REMARK   58  A    between atoms: _136  and  _137
REMARK   59  A    between atoms: _140  and  _142
REMARK   60  A    between atoms: _142  and  _143
REMARK   61  A    between atoms: _142  and  _145
REMARK   62  A    between atoms: _145  and  _146
REMARK   63  A    between atoms: _151  and  _153
REMARK   64  A    between atoms: _153  and  _154
REMARK   65  A    between atoms: _153  and  _156
REMARK   66  A    between atoms: _156  and  _157
REMARK   67  A    between atoms: _162  and  _164
REMARK   68  A    between atoms: _164  and  _165
REMARK   69  A    between atoms: _164  and  _167
REMARK   70  A    between atoms: _167  and  _168
REMARK   71  A    between atoms: _171  and  _173
REMARK   72  A    between atoms: _173  and  _174
REMARK   73  A    between atoms: _173  and  _176
REMARK   74  A    between atoms: _178  and  _180
REMARK   75  A    between atoms: _180  and  _181
REMARK   76  A    between atoms: _180  and  _183
REMARK   77  A    between atoms: _183  and  _184
REMARK   78  A    between atoms: _184  and  _185
REMARK   79  A    between atoms: _190  and  _192
REMARK   80  A    between atoms: _192  and  _193
REMARK   81  A    between atoms: _192  and  _195
REMARK   82  A    between atoms: _195  and  _196
REMARK   83  A    between atoms: _196  and  _197
REMARK   84  A    between atoms: _200  and  _202
REMARK   85  A    between atoms: _202  and  _203
REMARK   86  A    between atoms: _205  and  _207
REMARK   87  A    between atoms: _207  and  _208
REMARK   88  A    between atoms: _207  and  _210
REMARK   89  A    between atoms: _210  and  _211
REMARK   90  A    between atoms: _216  and  _218
REMARK   91  A    between atoms: _218  and  _219
REMARK   92  A    between atoms: _218  and  _221
REMARK   93  A    between atoms: _221  and  _222
REMARK   94  A    between atoms: _225  and  _227
REMARK   95  A    between atoms: _227  and  _228
REMARK   96  A    between atoms: _227  and  _230
REMARK   97  A    between atoms: _230  and  _231
REMARK   98  A    between atoms: _231  and  _232
REMARK   99  A    between atoms: _235  and  _237
REMARK  100  A    between atoms: _237  and  _238
REMARK  101  A    between atoms: _237  and  _240
REMARK  102  A    between atoms: _240  and  _241
REMARK  103  A    between atoms: _246  and  _247
REMARK  104  A    between atoms: _249  and  _251
REMARK  105  A    between atoms: _251  and  _252
REMARK  106  A    between atoms: _251  and  _254
REMARK  107  A    between atoms: _254  and  _255
REMARK  108  A    between atoms: _257  and  _259
REMARK  109  A    between atoms: _259  and  _260
REMARK  110  A    between atoms: _259  and  _262
REMARK  111  A    between atoms: _262  and  _263
REMARK  112  A    between atoms: _268  and  _270
REMARK  113  A    between atoms: _270  and  _271
REMARK  114  A    between atoms: _270  and  _273
REMARK  115  A    between atoms: _273  and  _274
REMARK  116  A    between atoms: _280  and  _282
REMARK  117  A    between atoms: _282  and  _283
REMARK  118  A    between atoms: _282  and  _285
REMARK  119  A    between atoms: _285  and  _286
REMARK  120  A    between atoms: _291  and  _293
REMARK  121  A    between atoms: _293  and  _294
REMARK  122  A    between atoms: _293  and  _296
REMARK  123  A    between atoms: _296  and  _297
REMARK  124  A    between atoms: _297  and  _298
REMARK  125  A    between atoms: _301  and  _303
REMARK  126  A    between atoms: _303  and  _304
REMARK  127  A    between atoms: _303  and  _306
REMARK  128  A    between atoms: _306  and  _307
REMARK  129  A    between atoms: _312  and  _313
REMARK  130  A    between atoms: _315  and  _317
REMARK  131  A    between atoms: _317  and  _318
REMARK  132  A    between atoms: _317  and  _320
REMARK  133  A    between atoms: _320  and  _321
REMARK  134  A    between atoms: _324  and  _326
REMARK  135  A    between atoms: _326  and  _327
REMARK  136  A    between atoms: _326  and  _329
REMARK  137  A    between atoms: _329  and  _330
REMARK  138  A    between atoms: _335  and  _336
REMARK  139  A    between atoms: _338  and  _340
REMARK  140  A    between atoms: _340  and  _341
REMARK  141  A    between atoms: _340  and  _343
REMARK  142  A    between atoms: _343  and  _344
REMARK  143  A    between atoms: _346  and  _348
REMARK  144  A    between atoms: _348  and  _349
REMARK  145  A    between atoms: _348  and  _351
REMARK  146  A    between atoms: _351  and  _352
REMARK  147  A    between atoms: _357  and  _358
REMARK  148  A    between atoms: _360  and  _362
REMARK  149  A    between atoms: _362  and  _363
REMARK  150  A    between atoms: _362  and  _365
REMARK  151  A    between atoms: _365  and  _366
REMARK  152  A    between atoms: _372  and  _374
REMARK  153  A    between atoms: _374  and  _375
REMARK  154  A    between atoms: _374  and  _377
REMARK  155  A    between atoms: _377  and  _378
REMARK  156  A    between atoms: _384  and  _386
REMARK  157  A    between atoms: _386  and  _387
REMARK  158  A    between atoms: _390  and  _392
REMARK  159  A    between atoms: _392  and  _393
REMARK  160  A    between atoms: _392  and  _395
REMARK  161  A    between atoms: _395  and  _396
REMARK  162  A    between atoms: _398  and  _400
REMARK  163  A    between atoms: _400  and  _401
REMARK  164  A    between atoms: _400  and  _403
REMARK  165  A    between atoms: _403  and  _404
REMARK  166  A    between atoms: _410  and  _412
REMARK  167  A    between atoms: _412  and  _413
REMARK  168  A    between atoms: _412  and  _415
REMARK  169  A    between atoms: _415  and  _416
REMARK  170  A    between atoms: _419  and  _421
REMARK  171  A    between atoms: _421  and  _422
REMARK  172  A    between atoms: _421  and  _424
REMARK  173  A    between atoms: _424  and  _425
REMARK  174  A    between atoms: _435  and  _437
REMARK  175  A    between atoms: _437  and  _438
REMARK  176  A    between atoms: _440  and  _442
REMARK  177  A    between atoms: _442  and  _443
REMARK  178  A    between atoms: _442  and  _445
REMARK  179  A    between atoms: _445  and  _446
REMARK  180  A    between atoms: _449  and  _451
REMARK  181  A    between atoms: _451  and  _452
REMARK  182  A    between atoms: _451  and  _454
REMARK  183  A    between atoms: _454  and  _455
REMARK  184  A    between atoms: _465  and  _467
REMARK  185  A    between atoms: _467  and  _468
REMARK  186  A    between atoms: _467  and  _470
REMARK  187  A    between atoms: _470  and  _471
REMARK  188  A    between atoms: _473  and  _475
REMARK  189  A    between atoms: _475  and  _476
REMARK  190  A    between atoms: _475  and  _478
REMARK  191  A    between atoms: _478  and  _479
REMARK  192  A    between atoms: _482  and  _484
REMARK  193  A    between atoms: _484  and  _485
REMARK  194  A    between atoms: _484  and  _487
REMARK  195  A    between atoms: _490  and  _492
REMARK  196  A    between atoms: _492  and  _493
REMARK  197  A    between atoms: _492  and  _495
REMARK  198  A    between atoms: _495  and  _496
REMARK  199  A    between atoms: _496  and  _497
REMARK  200  A    between atoms: _502  and  _504
REMARK  201  A    between atoms: _504  and  _505
REMARK  202  A    between atoms: _504  and  _507
REMARK  203  A    between atoms: _507  and  _508
REMARK  204  A    between atoms: _510  and  _512
REMARK  205  A    between atoms: _512  and  _513
REMARK  206  A    between atoms: _512  and  _515
REMARK  207  A    between atoms: _515  and  _516
REMARK  208  A    between atoms: _518  and  _520
REMARK  209  A    between atoms: _520  and  _521
REMARK  210  A    between atoms: _520  and  _523
REMARK  211  A    between atoms: _523  and  _524
REMARK  212  A    between atoms: _527  and  _529
REMARK  213  A    between atoms: _529  and  _530
REMARK  214  A    between atoms: _529  and  _532
REMARK  215  A    between atoms: _532  and  _533
REMARK  216  A    between atoms: _533  and  _534
REMARK  217  A    between atoms: _537  and  _539
REMARK  218  A    between atoms: _539  and  _540
REMARK  219  A    between atoms: _539  and  _542
REMARK  220  A    between atoms: _542  and  _543
REMARK  221  A    between atoms: _549  and  _551
REMARK  222  A    between atoms: _551  and  _552
REMARK  223  A    between atoms: _554  and  _556
REMARK  224  A    between atoms: _556  and  _557
REMARK  225  A    between atoms: _556  and  _559
REMARK  226  A    between atoms: _559  and  _560
REMARK  227  A    between atoms: _565  and  _566
REMARK  228  A    between atoms: _568  and  _570
REMARK  229  A    between atoms: _570  and  _571
REMARK  230  A    between atoms: _570  and  _573
REMARK  231  A    between atoms: _573  and  _574
REMARK  232  A    between atoms: _579  and  _580
REMARK  233  A    between atoms: _582  and  _584
REMARK  234  A    between atoms: _584  and  _585
REMARK  235  A    between atoms: _588  and  _590
REMARK  236  A    between atoms: _590  and  _591
REMARK  237  A    between atoms: _590  and  _593
REMARK  238  A    between atoms: _593  and  _594
REMARK  239  A    between atoms: _594  and  _595
REMARK  240  A    between atoms: _595  and  _596
REMARK                            x       y       z     vdW  Elec       q    Type
REMARK                         _______ _______ _______ _____ _____    ______ ____
ROOT
ATOM      1  O   HOH     1      26.972 -15.135  10.748  0.00  0.00    +0.000 OA
ENDROOT
TORSDOF 0
REMARK  Name = ../refined-set-2016/4cg8/4cg8_pocket.pdb
REMARK  240 active torsions:
REMARK  status: ('A' for Active; 'I' for Inactive)
REMARK    1  A    between atoms: _1  and  _3
REMARK    2  A    between atoms: _3  and  _4
REMARK    3  A    between atoms: _3  and  _6
REMARK    4  A    between atoms: _6  and  _7
REMARK    5  A    between atoms: _7  and  _8
REMARK    6  A    between atoms: _8  and  _9
REMARK    7  A    between atoms: _18  and  _20
REMARK    8  A    between atoms: _20  and  _21
REMARK    9  A    between atoms: _20  and  _23
REMARK   10  A    between atoms: _23  and  _24
REMARK   11  A    between atoms: _26  and  _28
REMARK   12  A    between atoms: _28  and  _29
REMARK   13  A    between atoms: _28  and  _31
REMARK   14  A    between atoms: _31  and  _32
REMARK   15  A    between atoms: _37  and  _39
REMARK   16  A    between atoms: _39  and  _40
REMARK   17  A    between atoms: _39  and  _42
REMARK   18  A    between atoms: _42  and  _43
REMARK   19  A    between atoms: _46  and  _48
REMARK   20  A    between atoms: _48  and  _49
REMARK   21  A    between atoms: _48  and  _51
REMARK   22  A    between atoms: _51  and  _52
REMARK   23  A    between atoms: _62  and  _64
REMARK   24  A    between atoms: _64  and  _65
REMARK   25  A    between atoms: _64  and  _67
REMARK   26  A    between atoms: _67  and  _68
REMARK   27  A    between atoms: _71  and  _73
REMARK   28  A    between atoms: _73  and  _74
REMARK   29  A    between atoms: _76  and  _78
REMARK   30  A    between atoms: _78  and  _79
REMARK   31  A    between atoms: _78  and  _81
REMARK   32  A    between atoms: _81  and  _82
REMARK   33  A    between atoms: _85  and  _87
REMARK   34  A    between atoms: _87  and  _88
REMARK   35  A    between atoms: _87  and  _90
REMARK   36  A    between atoms: _90  and  _91
REMARK   37  A    between atoms: _91  and  _92
REMARK   38  A    between atoms: _94  and  _96
REMARK   39  A    between atoms: _96  and  _97
REMARK   40  A    between atoms: _96  and  _99
REMARK   41  A    between atoms: _99  and  _100
REMARK   42  A    between atoms: _100  and  _101
REMARK   43  A    between atoms: _104  and  _106
REMARK   44  A    between atoms: _106  and  _107
REMARK   45  A    between atoms: _106  and  _109
REMARK   46  A    between atoms: _109  and  _110
REMARK   47  A    between atoms: _110  and  _111
REMARK   48  A    between atoms: _111  and  _112
REMARK   49  A    between atoms: _112  and  _113
REMARK   50  A    between atoms: _117  and  _119
REMARK   51  A    between atoms: _119  and  _120
REMARK   52  A    between atoms: _119  and  _122
REMARK   53  A    between atoms: _122  and  _123
REMARK   54  A    between atoms: _128  and  _129
REMARK   55  A    between atoms: _131  and  _133
REMARK   56  A    between atoms: _133  and  _134
REMARK   57  A    between atoms: _133  and  _136
REMARK   58  A    between atoms: _136  and  _137
REMARK   59  A    between atoms: _140  and  _142
REMARK   60  A    between atoms: _142  and  _143
REMARK   61  A    between atoms: _142  and  _145
REMARK   62  A    between atoms: _145  and  _146
REMARK   63  A    between atoms: _151  and  _153
REMARK   64  A    between atoms: _153  and  _154
REMARK   65  A    between atoms: _153  and  _156
REMARK   66  A    between atoms: _156  and  _157
REMARK   67  A    between atoms: _162  and  _164
REMARK   68  A    between atoms: _164  and  _165
REMARK   69  A    between atoms: _164  and  _167
REMARK   70  A    between atoms: _167  and  _168
REMARK   71  A    between atoms: _171  and  _173
REMARK   72  A    between atoms: _173  and  _174
REMARK   73  A    between atoms: _173  and  _176
REMARK   74  A    between atoms: _178  and  _180
REMARK   75  A    between atoms: _180  and  _181
REMARK   76  A    between atoms: _180  and  _183
REMARK   77  A    between atoms: _183  and  _184
REMARK   78  A    between atoms: _184  and  _185
REMARK   79  A    between atoms: _190  and  _192
REMARK   80  A    between atoms: _192  and  _193
REMARK   81  A    between atoms: _192  and  _195
REMARK   82  A    between atoms: _195  and  _196
REMARK   83  A    between atoms: _196  and  _197
REMARK   84  A    between atoms: _200  and  _202
REMARK   85  A    between atoms: _202  and  _203
REMARK   86  A    between atoms: _205  and  _207
REMARK   87  A    between atoms: _207  and  _208
REMARK   88  A    between atoms: _207  and  _210
REMARK   89  A    between atoms: _210  and  _211
REMARK   90  A    between atoms: _216  and  _218
REMARK   91  A    between atoms: _218  and  _219
REMARK   92  A    between atoms: _218  and  _221
REMARK   93  A    between atoms: _221  and  _222
REMARK   94  A    between atoms: _225  and  _227
REMARK   95  A    between atoms: _227  and  _228
REMARK   96  A    between atoms: _227  and  _230
REMARK   97  A    between atoms: _230  and  _231
REMARK   98  A    between atoms: _231  and  _232
REMARK   99  A    between atoms: _235  and  _237
REMARK  100  A    between atoms: _237  and  _238
REMARK  101  A    between atoms: _237  and  _240
REMARK  102  A    between atoms: _240  and  _241
REMARK  103  A    between atoms: _246  and  _247
REMARK  104  A    between atoms: _249  and  _251
REMARK  105  A    between atoms: _251  and  _252
REMARK  106  A    between atoms: _251  and  _254
REMARK  107  A    between atoms: _254  and  _255
REMARK  108  A    between atoms: _257  and  _259
REMARK  109  A    between atoms: _259  and  _260
REMARK  110  A    between atoms: _259  and  _262
REMARK  111  A    between atoms: _262  and  _263
REMARK  112  A    between atoms: _268  and  _270
REMARK  113  A    between atoms: _270  and  _271
REMARK  114  A    between atoms: _270  and  _273
REMARK  115  A    between atoms: _273  and  _274
REMARK  116  A    between atoms: _280  and  _282
REMARK  117  A    between atoms: _282  and  _283
REMARK  118  A    between atoms: _282  and  _285
REMARK  119  A    between atoms: _285  and  _286
REMARK  120  A    between atoms: _291  and  _293
REMARK  121  A    between atoms: _293  and  _294
REMARK  122  A    between atoms: _293  and  _296
REMARK  123  A    between atoms: _296  and  _297
REMARK  124  A    between atoms: _297  and  _298
REMARK  125  A    between atoms: _301  and  _303
REMARK  126  A    between atoms: _303  and  _304
REMARK  127  A    between atoms: _303  and  _306
REMARK  128  A    between atoms: _306  and  _307
REMARK  129  A    between atoms: _312  and  _313
REMARK  130  A    between atoms: _315  and  _317
REMARK  131  A    between atoms: _317  and  _318
REMARK  132  A    between atoms: _317  and  _320
REMARK  133  A    between atoms: _320  and  _321
REMARK  134  A    between atoms: _324  and  _326
REMARK  135  A    between atoms: _326  and  _327
REMARK  136  A    between atoms: _326  and  _329
REMARK  137  A    between atoms: _329  and  _330
REMARK  138  A    between atoms: _335  and  _336
REMARK  139  A    between atoms: _338  and  _340
REMARK  140  A    between atoms: _340  and  _341
REMARK  141  A    between atoms: _340  and  _343
REMARK  142  A    between atoms: _343  and  _344
REMARK  143  A    between atoms: _346  and  _348
REMARK  144  A    between atoms: _348  and  _349
REMARK  145  A    between atoms: _348  and  _351
REMARK  146  A    between atoms: _351  and  _352
REMARK  147  A    between atoms: _357  and  _358
REMARK  148  A    between atoms: _360  and  _362
REMARK  149  A    between atoms: _362  and  _363
REMARK  150  A    between atoms: _362  and  _365
REMARK  151  A    between atoms: _365  and  _366
REMARK  152  A    between atoms: _372  and  _374
REMARK  153  A    between atoms: _374  and  _375
REMARK  154  A    between atoms: _374  and  _377
REMARK  155  A    between atoms: _377  and  _378
REMARK  156  A    between atoms: _384  and  _386
REMARK  157  A    between atoms: _386  and  _387
REMARK  158  A    between atoms: _390  and  _392
REMARK  159  A    between atoms: _392  and  _393
REMARK  160  A    between atoms: _392  and  _395
REMARK  161  A    between atoms: _395  and  _396
REMARK  162  A    between atoms: _398  and  _400
REMARK  163  A    between atoms: _400  and  _401
REMARK  164  A    between atoms: _400  and  _403
REMARK  165  A    between atoms: _403  and  _404
REMARK  166  A    between atoms: _410  and  _412
REMARK  167  A    between atoms: _412  and  _413
REMARK  168  A    between atoms: _412  and  _415
REMARK  169  A    between atoms: _415  and  _416
REMARK  170  A    between atoms: _419  and  _421
REMARK  171  A    between atoms: _421  and  _422
REMARK  172  A    between atoms: _421  and  _424
REMARK  173  A    between atoms: _424  and  _425
REMARK  174  A    between atoms: _435  and  _437
REMARK  175  A    between atoms: _437  and  _438
REMARK  176  A    between atoms: _440  and  _442
REMARK  177  A    between atoms: _442  and  _443
REMARK  178  A    between atoms: _442  and  _445
REMARK  179  A    between atoms: _445  and  _446
REMARK  180  A    between atoms: _449  and  _451
REMARK  181  A    between atoms: _451  and  _452
REMARK  182  A    between atoms: _451  and  _454
REMARK  183  A    between atoms: _454  and  _455
REMARK  184  A    between atoms: _465  and  _467
REMARK  185  A    between atoms: _467  and  _468
REMARK  186  A    between atoms: _467  and  _470
REMARK  187  A    between atoms: _470  and  _471
REMARK  188  A    between atoms: _473  and  _475
REMARK  189  A    between atoms: _475  and  _476
REMARK  190  A    between atoms: _475  and  _478
REMARK  191  A    between atoms: _478  and  _479
REMARK  192  A    between atoms: _482  and  _484
REMARK  193  A    between atoms: _484  and  _485
REMARK  194  A    between atoms: _484  and  _487
REMARK  195  A    between atoms: _490  and  _492
REMARK  196  A    between atoms: _492  and  _493
REMARK  197  A    between atoms: _492  and  _495
REMARK  198  A    between atoms: _495  and  _496
REMARK  199  A    between atoms: _496  and  _497
REMARK  200  A    between atoms: _502  and  _504
REMARK  201  A    between atoms: _504  and  _505
REMARK  202  A    between atoms: _504  and  _507
REMARK  203  A    between atoms: _507  and  _508
REMARK  204  A    between atoms: _510  and  _512
REMARK  205  A    between atoms: _512  and  _513
REMARK  206  A    between atoms: _512  and  _515
REMARK  207  A    between atoms: _515  and  _516
REMARK  208  A    between atoms: _518  and  _520
REMARK  209  A    between atoms: _520  and  _521
REMARK  210  A    between atoms: _520  and  _523
REMARK  211  A    between atoms: _523  and  _524
REMARK  212  A    between atoms: _527  and  _529
REMARK  213  A    between atoms: _529  and  _530
REMARK  214  A    between atoms: _529  and  _532
REMARK  215  A    between atoms: _532  and  _533
REMARK  216  A    between atoms: _533  and  _534
REMARK  217  A    between atoms: _537  and  _539
REMARK  218  A    between atoms: _539  and  _540
REMARK  219  A    between atoms: _539  and  _542
REMARK  220  A    between atoms: _542  and  _543
REMARK  221  A    between atoms: _549  and  _551
REMARK  222  A    between atoms: _551  and  _552
REMARK  223  A    between atoms: _554  and  _556
REMARK  224  A    between atoms: _556  and  _557
REMARK  225  A    between atoms: _556  and  _559
REMARK  226  A    between atoms: _559  and  _560
REMARK  227  A    between atoms: _565  and  _566
REMARK  228  A    between atoms: _568  and  _570
REMARK  229  A    between atoms: _570  and  _571
REMARK  230  A    between atoms: _570  and  _573
REMARK  231  A    between atoms: _573  and  _574
REMARK  232  A    between atoms: _579  and  _580
REMARK  233  A    between atoms: _582  and  _584
REMARK  234  A    between atoms: _584  and  _585
REMARK  235  A    between atoms: _588  and  _590
REMARK  236  A    between atoms: _590  and  _591
REMARK  237  A    between atoms: _590  and  _593
REMARK  238  A    between atoms: _593  and  _594
REMARK  239  A    between atoms: _594  and  _595
REMARK  240  A    between atoms: _595  and  _596
REMARK                            x       y       z     vdW  Elec       q    Type
REMARK                         _______ _______ _______ _____ _____    ______ ____
ROOT
ATOM      1  O   HOH     1      28.256  -7.881   8.911  0.00  0.00    +0.000 OA
ENDROOT
TORSDOF 0
REMARK  Name = ../refined-set-2016/4cg8/4cg8_pocket.pdb
REMARK  240 active torsions:
REMARK  status: ('A' for Active; 'I' for Inactive)
REMARK    1  A    between atoms: _1  and  _3
REMARK    2  A    between atoms: _3  and  _4
REMARK    3  A    between atoms: _3  and  _6
REMARK    4  A    between atoms: _6  and  _7
REMARK    5  A    between atoms: _7  and  _8
REMARK    6  A    between atoms: _8  and  _9
REMARK    7  A    between atoms: _18  and  _20
REMARK    8  A    between atoms: _20  and  _21
REMARK    9  A    between atoms: _20  and  _23
REMARK   10  A    between atoms: _23  and  _24
REMARK   11  A    between atoms: _26  and  _28
REMARK   12  A    between atoms: _28  and  _29
REMARK   13  A    between atoms: _28  and  _31
REMARK   14  A    between atoms: _31  and  _32
REMARK   15  A    between atoms: _37  and  _39
REMARK   16  A    between atoms: _39  and  _40
REMARK   17  A    between atoms: _39  and  _42
REMARK   18  A    between atoms: _42  and  _43
REMARK   19  A    between atoms: _46  and  _48
REMARK   20  A    between atoms: _48  and  _49
REMARK   21  A    between atoms: _48  and  _51
REMARK   22  A    between atoms: _51  and  _52
REMARK   23  A    between atoms: _62  and  _64
REMARK   24  A    between atoms: _64  and  _65
REMARK   25  A    between atoms: _64  and  _67
REMARK   26  A    between atoms: _67  and  _68
REMARK   27  A    between atoms: _71  and  _73
REMARK   28  A    between atoms: _73  and  _74
REMARK   29  A    between atoms: _76  and  _78
REMARK   30  A    between atoms: _78  and  _79
REMARK   31  A    between atoms: _78  and  _81
REMARK   32  A    between atoms: _81  and  _82
REMARK   33  A    between atoms: _85  and  _87
REMARK   34  A    between atoms: _87  and  _88
REMARK   35  A    between atoms: _87  and  _90
REMARK   36  A    between atoms: _90  and  _91
REMARK   37  A    between atoms: _91  and  _92
REMARK   38  A    between atoms: _94  and  _96
REMARK   39  A    between atoms: _96  and  _97
REMARK   40  A    between atoms: _96  and  _99
REMARK   41  A    between atoms: _99  and  _100
REMARK   42  A    between atoms: _100  and  _101
REMARK   43  A    between atoms: _104  and  _106
REMARK   44  A    between atoms: _106  and  _107
REMARK   45  A    between atoms: _106  and  _109
REMARK   46  A    between atoms: _109  and  _110
REMARK   47  A    between atoms: _110  and  _111
REMARK   48  A    between atoms: _111  and  _112
REMARK   49  A    between atoms: _112  and  _113
REMARK   50  A    between atoms: _117  and  _119
REMARK   51  A    between atoms: _119  and  _120
REMARK   52  A    between atoms: _119  and  _122
REMARK   53  A    between atoms: _122  and  _123
REMARK   54  A    between atoms: _128  and  _129
REMARK   55  A    between atoms: _131  and  _133
REMARK   56  A    between atoms: _133  and  _134
REMARK   57  A    between atoms: _133  and  _136
REMARK   58  A    between atoms: _136  and  _137
REMARK   59  A    between atoms: _140  and  _142
REMARK   60  A    between atoms: _142  and  _143
REMARK   61  A    between atoms: _142  and  _145
REMARK   62  A    between atoms: _145  and  _146
REMARK   63  A    between atoms: _151  and  _153
REMARK   64  A    between atoms: _153  and  _154
REMARK   65  A    between atoms: _153  and  _156
REMARK   66  A    between atoms: _156  and  _157
REMARK   67  A    between atoms: _162  and  _164
REMARK   68  A    between atoms: _164  and  _165
REMARK   69  A    between atoms: _164  and  _167
REMARK   70  A    between atoms: _167  and  _168
REMARK   71  A    between atoms: _171  and  _173
REMARK   72  A    between atoms: _173  and  _174
REMARK   73  A    between atoms: _173  and  _176
REMARK   74  A    between atoms: _178  and  _180
REMARK   75  A    between atoms: _180  and  _181
REMARK   76  A    between atoms: _180  and  _183
REMARK   77  A    between atoms: _183  and  _184
REMARK   78  A    between atoms: _184  and  _185
REMARK   79  A    between atoms: _190  and  _192
REMARK   80  A    between atoms: _192  and  _193
REMARK   81  A    between atoms: _192  and  _195
REMARK   82  A    between atoms: _195  and  _196
REMARK   83  A    between atoms: _196  and  _197
REMARK   84  A    between atoms: _200  and  _202
REMARK   85  A    between atoms: _202  and  _203
REMARK   86  A    between atoms: _205  and  _207
REMARK   87  A    between atoms: _207  and  _208
REMARK   88  A    between atoms: _207  and  _210
REMARK   89  A    between atoms: _210  and  _211
REMARK   90  A    between atoms: _216  and  _218
REMARK   91  A    between atoms: _218  and  _219
REMARK   92  A    between atoms: _218  and  _221
REMARK   93  A    between atoms: _221  and  _222
REMARK   94  A    between atoms: _225  and  _227
REMARK   95  A    between atoms: _227  and  _228
REMARK   96  A    between atoms: _227  and  _230
REMARK   97  A    between atoms: _230  and  _231
REMARK   98  A    between atoms: _231  and  _232
REMARK   99  A    between atoms: _235  and  _237
REMARK  100  A    between atoms: _237  and  _238
REMARK  101  A    between atoms: _237  and  _240
REMARK  102  A    between atoms: _240  and  _241
REMARK  103  A    between atoms: _246  and  _247
REMARK  104  A    between atoms: _249  and  _251
REMARK  105  A    between atoms: _251  and  _252
REMARK  106  A    between atoms: _251  and  _254
REMARK  107  A    between atoms: _254  and  _255
REMARK  108  A    between atoms: _257  and  _259
REMARK  109  A    between atoms: _259  and  _260
REMARK  110  A    between atoms: _259  and  _262
REMARK  111  A    between atoms: _262  and  _263
REMARK  112  A    between atoms: _268  and  _270
REMARK  113  A    between atoms: _270  and  _271
REMARK  114  A    between atoms: _270  and  _273
REMARK  115  A    between atoms: _273  and  _274
REMARK  116  A    between atoms: _280  and  _282
REMARK  117  A    between atoms: _282  and  _283
REMARK  118  A    between atoms: _282  and  _285
REMARK  119  A    between atoms: _285  and  _286
REMARK  120  A    between atoms: _291  and  _293
REMARK  121  A    between atoms: _293  and  _294
REMARK  122  A    between atoms: _293  and  _296
REMARK  123  A    between atoms: _296  and  _297
REMARK  124  A    between atoms: _297  and  _298
REMARK  125  A    between atoms: _301  and  _303
REMARK  126  A    between atoms: _303  and  _304
REMARK  127  A    between atoms: _303  and  _306
REMARK  128  A    between atoms: _306  and  _307
REMARK  129  A    between atoms: _312  and  _313
REMARK  130  A    between atoms: _315  and  _317
REMARK  131  A    between atoms: _317  and  _318
REMARK  132  A    between atoms: _317  and  _320
REMARK  133  A    between atoms: _320  and  _321
REMARK  134  A    between atoms: _324  and  _326
REMARK  135  A    between atoms: _326  and  _327
REMARK  136  A    between atoms: _326  and  _329
REMARK  137  A    between atoms: _329  and  _330
REMARK  138  A    between atoms: _335  and  _336
REMARK  139  A    between atoms: _338  and  _340
REMARK  140  A    between atoms: _340  and  _341
REMARK  141  A    between atoms: _340  and  _343
REMARK  142  A    between atoms: _343  and  _344
REMARK  143  A    between atoms: _346  and  _348
REMARK  144  A    between atoms: _348  and  _349
REMARK  145  A    between atoms: _348  and  _351
REMARK  146  A    between atoms: _351  and  _352
REMARK  147  A    between atoms: _357  and  _358
REMARK  148  A    between atoms: _360  and  _362
REMARK  149  A    between atoms: _362  and  _363
REMARK  150  A    between atoms: _362  and  _365
REMARK  151  A    between atoms: _365  and  _366
REMARK  152  A    between atoms: _372  and  _374
REMARK  153  A    between atoms: _374  and  _375
REMARK  154  A    between atoms: _374  and  _377
REMARK  155  A    between atoms: _377  and  _378
REMARK  156  A    between atoms: _384  and  _386
REMARK  157  A    between atoms: _386  and  _387
REMARK  158  A    between atoms: _390  and  _392
REMARK  159  A    between atoms: _392  and  _393
REMARK  160  A    between atoms: _392  and  _395
REMARK  161  A    between atoms: _395  and  _396
REMARK  162  A    between atoms: _398  and  _400
REMARK  163  A    between atoms: _400  and  _401
REMARK  164  A    between atoms: _400  and  _403
REMARK  165  A    between atoms: _403  and  _404
REMARK  166  A    between atoms: _410  and  _412
REMARK  167  A    between atoms: _412  and  _413
REMARK  168  A    between atoms: _412  and  _415
REMARK  169  A    between atoms: _415  and  _416
REMARK  170  A    between atoms: _419  and  _421
REMARK  171  A    between atoms: _421  and  _422
REMARK  172  A    between atoms: _421  and  _424
REMARK  173  A    between atoms: _424  and  _425
REMARK  174  A    between atoms: _435  and  _437
REMARK  175  A    between atoms: _437  and  _438
REMARK  176  A    between atoms: _440  and  _442
REMARK  177  A    between atoms: _442  and  _443
REMARK  178  A    between atoms: _442  and  _445
REMARK  179  A    between atoms: _445  and  _446
REMARK  180  A    between atoms: _449  and  _451
REMARK  181  A    between atoms: _451  and  _452
REMARK  182  A    between atoms: _451  and  _454
REMARK  183  A    between atoms: _454  and  _455
REMARK  184  A    between atoms: _465  and  _467
REMARK  185  A    between atoms: _467  and  _468
REMARK  186  A    between atoms: _467  and  _470
REMARK  187  A    between atoms: _470  and  _471
REMARK  188  A    between atoms: _473  and  _475
REMARK  189  A    between atoms: _475  and  _476
REMARK  190  A    between atoms: _475  and  _478
REMARK  191  A    between atoms: _478  and  _479
REMARK  192  A    between atoms: _482  and  _484
REMARK  193  A    between atoms: _484  and  _485
REMARK  194  A    between atoms: _484  and  _487
REMARK  195  A    between atoms: _490  and  _492
REMARK  196  A    between atoms: _492  and  _493
REMARK  197  A    between atoms: _492  and  _495
REMARK  198  A    between atoms: _495  and  _496
REMARK  199  A    between atoms: _496  and  _497
REMARK  200  A    between atoms: _502  and  _504
REMARK  201  A    between atoms: _504  and  _505
REMARK  202  A    between atoms: _504  and  _507
REMARK  203  A    between atoms: _507  and  _508
REMARK  204  A    between atoms: _510  and  _512
REMARK  205  A    between atoms: _512  and  _513
REMARK  206  A    between atoms: _512  and  _515
REMARK  207  A    between atoms: _515  and  _516
REMARK  208  A    between atoms: _518  and  _520
REMARK  209  A    between atoms: _520  and  _521
REMARK  210  A    between atoms: _520  and  _523
REMARK  211  A    between atoms: _523  and  _524
REMARK  212  A    between atoms: _527  and  _529
REMARK  213  A    between atoms: _529  and  _530
REMARK  214  A    between atoms: _529  and  _532
REMARK  215  A    between atoms: _532  and  _533
REMARK  216  A    between atoms: _533  and  _534
REMARK  217  A    between atoms: _537  and  _539
REMARK  218  A    between atoms: _539  and  _540
REMARK  219  A    between atoms: _539  and  _542
REMARK  220  A    between atoms: _542  and  _543
REMARK  221  A    between atoms: _549  and  _551
REMARK  222  A    between atoms: _551  and  _552
REMARK  223  A    between atoms: _554  and  _556
REMARK  224  A    between atoms: _556  and  _557
REMARK  225  A    between atoms: _556  and  _559
REMARK  226  A    between atoms: _559  and  _560
REMARK  227  A    between atoms: _565  and  _566
REMARK  228  A    between atoms: _568  and  _570
REMARK  229  A    between atoms: _570  and  _571
REMARK  230  A    between atoms: _570  and  _573
REMARK  231  A    between atoms: _573  and  _574
REMARK  232  A    between atoms: _579  and  _580
REMARK  233  A    between atoms: _582  and  _584
REMARK  234  A    between atoms: _584  and  _585
REMARK  235  A    between atoms: _588  and  _590
REMARK  236  A    between atoms: _590  and  _591
REMARK  237  A    between atoms: _590  and  _593
REMARK  238  A    between atoms: _593  and  _594
REMARK  239  A    between atoms: _594  and  _595
REMARK  240  A    between atoms: _595  and  _596
REMARK                            x       y       z     vdW  Elec       q    Type
REMARK                         _______ _______ _______ _____ _____    ______ ____
ROOT
ATOM      1  O   HOH     1      31.145  -7.489  10.394  0.00  0.00    +0.000 OA
ENDROOT
TORSDOF 0
REMARK  Name = ../refined-set-2016/4cg8/4cg8_pocket.pdb
REMARK  240 active torsions:
REMARK  status: ('A' for Active; 'I' for Inactive)
REMARK    1  A    between atoms: _1  and  _3
REMARK    2  A    between atoms: _3  and  _4
REMARK    3  A    between atoms: _3  and  _6
REMARK    4  A    between atoms: _6  and  _7
REMARK    5  A    between atoms: _7  and  _8
REMARK    6  A    between atoms: _8  and  _9
REMARK    7  A    between atoms: _18  and  _20
REMARK    8  A    between atoms: _20  and  _21
REMARK    9  A    between atoms: _20  and  _23
REMARK   10  A    between atoms: _23  and  _24
REMARK   11  A    between atoms: _26  and  _28
REMARK   12  A    between atoms: _28  and  _29
REMARK   13  A    between atoms: _28  and  _31
REMARK   14  A    between atoms: _31  and  _32
REMARK   15  A    between atoms: _37  and  _39
REMARK   16  A    between atoms: _39  and  _40
REMARK   17  A    between atoms: _39  and  _42
REMARK   18  A    between atoms: _42  and  _43
REMARK   19  A    between atoms: _46  and  _48
REMARK   20  A    between atoms: _48  and  _49
REMARK   21  A    between atoms: _48  and  _51
REMARK   22  A    between atoms: _51  and  _52
REMARK   23  A    between atoms: _62  and  _64
REMARK   24  A    between atoms: _64  and  _65
REMARK   25  A    between atoms: _64  and  _67
REMARK   26  A    between atoms: _67  and  _68
REMARK   27  A    between atoms: _71  and  _73
REMARK   28  A    between atoms: _73  and  _74
REMARK   29  A    between atoms: _76  and  _78
REMARK   30  A    between atoms: _78  and  _79
REMARK   31  A    between atoms: _78  and  _81
REMARK   32  A    between atoms: _81  and  _82
REMARK   33  A    between atoms: _85  and  _87
REMARK   34  A    between atoms: _87  and  _88
REMARK   35  A    between atoms: _87  and  _90
REMARK   36  A    between atoms: _90  and  _91
REMARK   37  A    between atoms: _91  and  _92
REMARK   38  A    between atoms: _94  and  _96
REMARK   39  A    between atoms: _96  and  _97
REMARK   40  A    between atoms: _96  and  _99
REMARK   41  A    between atoms: _99  and  _100
REMARK   42  A    between atoms: _100  and  _101
REMARK   43  A    between atoms: _104  and  _106
REMARK   44  A    between atoms: _106  and  _107
REMARK   45  A    between atoms: _106  and  _109
REMARK   46  A    between atoms: _109  and  _110
REMARK   47  A    between atoms: _110  and  _111
REMARK   48  A    between atoms: _111  and  _112
REMARK   49  A    between atoms: _112  and  _113
REMARK   50  A    between atoms: _117  and  _119
REMARK   51  A    between atoms: _119  and  _120
REMARK   52  A    between atoms: _119  and  _122
REMARK   53  A    between atoms: _122  and  _123
REMARK   54  A    between atoms: _128  and  _129
REMARK   55  A    between atoms: _131  and  _133
REMARK   56  A    between atoms: _133  and  _134
REMARK   57  A    between atoms: _133  and  _136
REMARK   58  A    between atoms: _136  and  _137
REMARK   59  A    between atoms: _140  and  _142
REMARK   60  A    between atoms: _142  and  _143
REMARK   61  A    between atoms: _142  and  _145
REMARK   62  A    between atoms: _145  and  _146
REMARK   63  A    between atoms: _151  and  _153
REMARK   64  A    between atoms: _153  and  _154
REMARK   65  A    between atoms: _153  and  _156
REMARK   66  A    between atoms: _156  and  _157
REMARK   67  A    between atoms: _162  and  _164
REMARK   68  A    between atoms: _164  and  _165
REMARK   69  A    between atoms: _164  and  _167
REMARK   70  A    between atoms: _167  and  _168
REMARK   71  A    between atoms: _171  and  _173
REMARK   72  A    between atoms: _173  and  _174
REMARK   73  A    between atoms: _173  and  _176
REMARK   74  A    between atoms: _178  and  _180
REMARK   75  A    between atoms: _180  and  _181
REMARK   76  A    between atoms: _180  and  _183
REMARK   77  A    between atoms: _183  and  _184
REMARK   78  A    between atoms: _184  and  _185
REMARK   79  A    between atoms: _190  and  _192
REMARK   80  A    between atoms: _192  and  _193
REMARK   81  A    between atoms: _192  and  _195
REMARK   82  A    between atoms: _195  and  _196
REMARK   83  A    between atoms: _196  and  _197
REMARK   84  A    between atoms: _200  and  _202
REMARK   85  A    between atoms: _202  and  _203
REMARK   86  A    between atoms: _205  and  _207
REMARK   87  A    between atoms: _207  and  _208
REMARK   88  A    between atoms: _207  and  _210
REMARK   89  A    between atoms: _210  and  _211
REMARK   90  A    between atoms: _216  and  _218
REMARK   91  A    between atoms: _218  and  _219
REMARK   92  A    between atoms: _218  and  _221
REMARK   93  A    between atoms: _221  and  _222
REMARK   94  A    between atoms: _225  and  _227
REMARK   95  A    between atoms: _227  and  _228
REMARK   96  A    between atoms: _227  and  _230
REMARK   97  A    between atoms: _230  and  _231
REMARK   98  A    between atoms: _231  and  _232
REMARK   99  A    between atoms: _235  and  _237
REMARK  100  A    between atoms: _237  and  _238
REMARK  101  A    between atoms: _237  and  _240
REMARK  102  A    between atoms: _240  and  _241
REMARK  103  A    between atoms: _246  and  _247
REMARK  104  A    between atoms: _249  and  _251
REMARK  105  A    between atoms: _251  and  _252
REMARK  106  A    between atoms: _251  and  _254
REMARK  107  A    between atoms: _254  and  _255
REMARK  108  A    between atoms: _257  and  _259
REMARK  109  A    between atoms: _259  and  _260
REMARK  110  A    between atoms: _259  and  _262
REMARK  111  A    between atoms: _262  and  _263
REMARK  112  A    between atoms: _268  and  _270
REMARK  113  A    between atoms: _270  and  _271
REMARK  114  A    between atoms: _270  and  _273
REMARK  115  A    between atoms: _273  and  _274
REMARK  116  A    between atoms: _280  and  _282
REMARK  117  A    between atoms: _282  and  _283
REMARK  118  A    between atoms: _282  and  _285
REMARK  119  A    between atoms: _285  and  _286
REMARK  120  A    between atoms: _291  and  _293
REMARK  121  A    between atoms: _293  and  _294
REMARK  122  A    between atoms: _293  and  _296
REMARK  123  A    between atoms: _296  and  _297
REMARK  124  A    between atoms: _297  and  _298
REMARK  125  A    between atoms: _301  and  _303
REMARK  126  A    between atoms: _303  and  _304
REMARK  127  A    between atoms: _303  and  _306
REMARK  128  A    between atoms: _306  and  _307
REMARK  129  A    between atoms: _312  and  _313
REMARK  130  A    between atoms: _315  and  _317
REMARK  131  A    between atoms: _317  and  _318
REMARK  132  A    between atoms: _317  and  _320
REMARK  133  A    between atoms: _320  and  _321
REMARK  134  A    between atoms: _324  and  _326
REMARK  135  A    between atoms: _326  and  _327
REMARK  136  A    between atoms: _326  and  _329
REMARK  137  A    between atoms: _329  and  _330
REMARK  138  A    between atoms: _335  and  _336
REMARK  139  A    between atoms: _338  and  _340
REMARK  140  A    between atoms: _340  and  _341
REMARK  141  A    between atoms: _340  and  _343
REMARK  142  A    between atoms: _343  and  _344
REMARK  143  A    between atoms: _346  and  _348
REMARK  144  A    between atoms: _348  and  _349
REMARK  145  A    between atoms: _348  and  _351
REMARK  146  A    between atoms: _351  and  _352
REMARK  147  A    between atoms: _357  and  _358
REMARK  148  A    between atoms: _360  and  _362
REMARK  149  A    between atoms: _362  and  _363
REMARK  150  A    between atoms: _362  and  _365
REMARK  151  A    between atoms: _365  and  _366
REMARK  152  A    between atoms: _372  and  _374
REMARK  153  A    between atoms: _374  and  _375
REMARK  154  A    between atoms: _374  and  _377
REMARK  155  A    between atoms: _377  and  _378
REMARK  156  A    between atoms: _384  and  _386
REMARK  157  A    between atoms: _386  and  _387
REMARK  158  A    between atoms: _390  and  _392
REMARK  159  A    between atoms: _392  and  _393
REMARK  160  A    between atoms: _392  and  _395
REMARK  161  A    between atoms: _395  and  _396
REMARK  162  A    between atoms: _398  and  _400
REMARK  163  A    between atoms: _400  and  _401
REMARK  164  A    between atoms: _400  and  _403
REMARK  165  A    between atoms: _403  and  _404
REMARK  166  A    between atoms: _410  and  _412
REMARK  167  A    between atoms: _412  and  _413
REMARK  168  A    between atoms: _412  and  _415
REMARK  169  A    between atoms: _415  and  _416
REMARK  170  A    between atoms: _419  and  _421
REMARK  171  A    between atoms: _421  and  _422
REMARK  172  A    between atoms: _421  and  _424
REMARK  173  A    between atoms: _424  and  _425
REMARK  174  A    between atoms: _435  and  _437
REMARK  175  A    between atoms: _437  and  _438
REMARK  176  A    between atoms: _440  and  _442
REMARK  177  A    between atoms: _442  and  _443
REMARK  178  A    between atoms: _442  and  _445
REMARK  179  A    between atoms: _445  and  _446
REMARK  180  A    between atoms: _449  and  _451
REMARK  181  A    between atoms: _451  and  _452
REMARK  182  A    between atoms: _451  and  _454
REMARK  183  A    between atoms: _454  and  _455
REMARK  184  A    between atoms: _465  and  _467
REMARK  185  A    between atoms: _467  and  _468
REMARK  186  A    between atoms: _467  and  _470
REMARK  187  A    between atoms: _470  and  _471
REMARK  188  A    between atoms: _473  and  _475
REMARK  189  A    between atoms: _475  and  _476
REMARK  190  A    between atoms: _475  and  _478
REMARK  191  A    between atoms: _478  and  _479
REMARK  192  A    between atoms: _482  and  _484
REMARK  193  A    between atoms: _484  and  _485
REMARK  194  A    between atoms: _484  and  _487
REMARK  195  A    between atoms: _490  and  _492
REMARK  196  A    between atoms: _492  and  _493
REMARK  197  A    between atoms: _492  and  _495
REMARK  198  A    between atoms: _495  and  _496
REMARK  199  A    between atoms: _496  and  _497
REMARK  200  A    between atoms: _502  and  _504
REMARK  201  A    between atoms: _504  and  _505
REMARK  202  A    between atoms: _504  and  _507
REMARK  203  A    between atoms: _507  and  _508
REMARK  204  A    between atoms: _510  and  _512
REMARK  205  A    between atoms: _512  and  _513
REMARK  206  A    between atoms: _512  and  _515
REMARK  207  A    between atoms: _515  and  _516
REMARK  208  A    between atoms: _518  and  _520
REMARK  209  A    between atoms: _520  and  _521
REMARK  210  A    between atoms: _520  and  _523
REMARK  211  A    between atoms: _523  and  _524
REMARK  212  A    between atoms: _527  and  _529
REMARK  213  A    between atoms: _529  and  _530
REMARK  214  A    between atoms: _529  and  _532
REMARK  215  A    between atoms: _532  and  _533
REMARK  216  A    between atoms: _533  and  _534
REMARK  217  A    between atoms: _537  and  _539
REMARK  218  A    between atoms: _539  and  _540
REMARK  219  A    between atoms: _539  and  _542
REMARK  220  A    between atoms: _542  and  _543
REMARK  221  A    between atoms: _549  and  _551
REMARK  222  A    between atoms: _551  and  _552
REMARK  223  A    between atoms: _554  and  _556
REMARK  224  A    between atoms: _556  and  _557
REMARK  225  A    between atoms: _556  and  _559
REMARK  226  A    between atoms: _559  and  _560
REMARK  227  A    between atoms: _565  and  _566
REMARK  228  A    between atoms: _568  and  _570
REMARK  229  A    between atoms: _570  and  _571
REMARK  230  A    between atoms: _570  and  _573
REMARK  231  A    between atoms: _573  and  _574
REMARK  232  A    between atoms: _579  and  _580
REMARK  233  A    between atoms: _582  and  _584
REMARK  234  A    between atoms: _584  and  _585
REMARK  235  A    between atoms: _588  and  _590
REMARK  236  A    between atoms: _590  and  _591
REMARK  237  A    between atoms: _590  and  _593
REMARK  238  A    between atoms: _593  and  _594
REMARK  239  A    between atoms: _594  and  _595
REMARK  240  A    between atoms: _595  and  _596
REMARK                            x       y       z     vdW  Elec       q    Type
REMARK                         _______ _______ _______ _____ _____    ______ ____
ROOT
ATOM      1  O   HOH     1      20.676 -19.709   6.766  0.00  0.00    +0.000 OA
ENDROOT
TORSDOF 0
REMARK  Name = ../refined-set-2016/4cg8/4cg8_pocket.pdb
REMARK  240 active torsions:
REMARK  status: ('A' for Active; 'I' for Inactive)
REMARK    1  A    between atoms: _1  and  _3
REMARK    2  A    between atoms: _3  and  _4
REMARK    3  A    between atoms: _3  and  _6
REMARK    4  A    between atoms: _6  and  _7
REMARK    5  A    between atoms: _7  and  _8
REMARK    6  A    between atoms: _8  and  _9
REMARK    7  A    between atoms: _18  and  _20
REMARK    8  A    between atoms: _20  and  _21
REMARK    9  A    between atoms: _20  and  _23
REMARK   10  A    between atoms: _23  and  _24
REMARK   11  A    between atoms: _26  and  _28
REMARK   12  A    between atoms: _28  and  _29
REMARK   13  A    between atoms: _28  and  _31
REMARK   14  A    between atoms: _31  and  _32
REMARK   15  A    between atoms: _37  and  _39
REMARK   16  A    between atoms: _39  and  _40
REMARK   17  A    between atoms: _39  and  _42
REMARK   18  A    between atoms: _42  and  _43
REMARK   19  A    between atoms: _46  and  _48
REMARK   20  A    between atoms: _48  and  _49
REMARK   21  A    between atoms: _48  and  _51
REMARK   22  A    between atoms: _51  and  _52
REMARK   23  A    between atoms: _62  and  _64
REMARK   24  A    between atoms: _64  and  _65
REMARK   25  A    between atoms: _64  and  _67
REMARK   26  A    between atoms: _67  and  _68
REMARK   27  A    between atoms: _71  and  _73
REMARK   28  A    between atoms: _73  and  _74
REMARK   29  A    between atoms: _76  and  _78
REMARK   30  A    between atoms: _78  and  _79
REMARK   31  A    between atoms: _78  and  _81
REMARK   32  A    between atoms: _81  and  _82
REMARK   33  A    between atoms: _85  and  _87
REMARK   34  A    between atoms: _87  and  _88
REMARK   35  A    between atoms: _87  and  _90
REMARK   36  A    between atoms: _90  and  _91
REMARK   37  A    between atoms: _91  and  _92
REMARK   38  A    between atoms: _94  and  _96
REMARK   39  A    between atoms: _96  and  _97
REMARK   40  A    between atoms: _96  and  _99
REMARK   41  A    between atoms: _99  and  _100
REMARK   42  A    between atoms: _100  and  _101
REMARK   43  A    between atoms: _104  and  _106
REMARK   44  A    between atoms: _106  and  _107
REMARK   45  A    between atoms: _106  and  _109
REMARK   46  A    between atoms: _109  and  _110
REMARK   47  A    between atoms: _110  and  _111
REMARK   48  A    between atoms: _111  and  _112
REMARK   49  A    between atoms: _112  and  _113
REMARK   50  A    between atoms: _117  and  _119
REMARK   51  A    between atoms: _119  and  _120
REMARK   52  A    between atoms: _119  and  _122
REMARK   53  A    between atoms: _122  and  _123
REMARK   54  A    between atoms: _128  and  _129
REMARK   55  A    between atoms: _131  and  _133
REMARK   56  A    between atoms: _133  and  _134
REMARK   57  A    between atoms: _133  and  _136
REMARK   58  A    between atoms: _136  and  _137
REMARK   59  A    between atoms: _140  and  _142
REMARK   60  A    between atoms: _142  and  _143
REMARK   61  A    between atoms: _142  and  _145
REMARK   62  A    between atoms: _145  and  _146
REMARK   63  A    between atoms: _151  and  _153
REMARK   64  A    between atoms: _153  and  _154
REMARK   65  A    between atoms: _153  and  _156
REMARK   66  A    between atoms: _156  and  _157
REMARK   67  A    between atoms: _162  and  _164
REMARK   68  A    between atoms: _164  and  _165
REMARK   69  A    between atoms: _164  and  _167
REMARK   70  A    between atoms: _167  and  _168
REMARK   71  A    between atoms: _171  and  _173
REMARK   72  A    between atoms: _173  and  _174
REMARK   73  A    between atoms: _173  and  _176
REMARK   74  A    between atoms: _178  and  _180
REMARK   75  A    between atoms: _180  and  _181
REMARK   76  A    between atoms: _180  and  _183
REMARK   77  A    between atoms: _183  and  _184
REMARK   78  A    between atoms: _184  and  _185
REMARK   79  A    between atoms: _190  and  _192
REMARK   80  A    between atoms: _192  and  _193
REMARK   81  A    between atoms: _192  and  _195
REMARK   82  A    between atoms: _195  and  _196
REMARK   83  A    between atoms: _196  and  _197
REMARK   84  A    between atoms: _200  and  _202
REMARK   85  A    between atoms: _202  and  _203
REMARK   86  A    between atoms: _205  and  _207
REMARK   87  A    between atoms: _207  and  _208
REMARK   88  A    between atoms: _207  and  _210
REMARK   89  A    between atoms: _210  and  _211
REMARK   90  A    between atoms: _216  and  _218
REMARK   91  A    between atoms: _218  and  _219
REMARK   92  A    between atoms: _218  and  _221
REMARK   93  A    between atoms: _221  and  _222
REMARK   94  A    between atoms: _225  and  _227
REMARK   95  A    between atoms: _227  and  _228
REMARK   96  A    between atoms: _227  and  _230
REMARK   97  A    between atoms: _230  and  _231
REMARK   98  A    between atoms: _231  and  _232
REMARK   99  A    between atoms: _235  and  _237
REMARK  100  A    between atoms: _237  and  _238
REMARK  101  A    between atoms: _237  and  _240
REMARK  102  A    between atoms: _240  and  _241
REMARK  103  A    between atoms: _246  and  _247
REMARK  104  A    between atoms: _249  and  _251
REMARK  105  A    between atoms: _251  and  _252
REMARK  106  A    between atoms: _251  and  _254
REMARK  107  A    between atoms: _254  and  _255
REMARK  108  A    between atoms: _257  and  _259
REMARK  109  A    between atoms: _259  and  _260
REMARK  110  A    between atoms: _259  and  _262
REMARK  111  A    between atoms: _262  and  _263
REMARK  112  A    between atoms: _268  and  _270
REMARK  113  A    between atoms: _270  and  _271
REMARK  114  A    between atoms: _270  and  _273
REMARK  115  A    between atoms: _273  and  _274
REMARK  116  A    between atoms: _280  and  _282
REMARK  117  A    between atoms: _282  and  _283
REMARK  118  A    between atoms: _282  and  _285
REMARK  119  A    between atoms: _285  and  _286
REMARK  120  A    between atoms: _291  and  _293
REMARK  121  A    between atoms: _293  and  _294
REMARK  122  A    between atoms: _293  and  _296
REMARK  123  A    between atoms: _296  and  _297
REMARK  124  A    between atoms: _297  and  _298
REMARK  125  A    between atoms: _301  and  _303
REMARK  126  A    between atoms: _303  and  _304
REMARK  127  A    between atoms: _303  and  _306
REMARK  128  A    between atoms: _306  and  _307
REMARK  129  A    between atoms: _312  and  _313
REMARK  130  A    between atoms: _315  and  _317
REMARK  131  A    between atoms: _317  and  _318
REMARK  132  A    between atoms: _317  and  _320
REMARK  133  A    between atoms: _320  and  _321
REMARK  134  A    between atoms: _324  and  _326
REMARK  135  A    between atoms: _326  and  _327
REMARK  136  A    between atoms: _326  and  _329
REMARK  137  A    between atoms: _329  and  _330
REMARK  138  A    between atoms: _335  and  _336
REMARK  139  A    between atoms: _338  and  _340
REMARK  140  A    between atoms: _340  and  _341
REMARK  141  A    between atoms: _340  and  _343
REMARK  142  A    between atoms: _343  and  _344
REMARK  143  A    between atoms: _346  and  _348
REMARK  144  A    between atoms: _348  and  _349
REMARK  145  A    between atoms: _348  and  _351
REMARK  146  A    between atoms: _351  and  _352
REMARK  147  A    between atoms: _357  and  _358
REMARK  148  A    between atoms: _360  and  _362
REMARK  149  A    between atoms: _362  and  _363
REMARK  150  A    between atoms: _362  and  _365
REMARK  151  A    between atoms: _365  and  _366
REMARK  152  A    between atoms: _372  and  _374
REMARK  153  A    between atoms: _374  and  _375
REMARK  154  A    between atoms: _374  and  _377
REMARK  155  A    between atoms: _377  and  _378
REMARK  156  A    between atoms: _384  and  _386
REMARK  157  A    between atoms: _386  and  _387
REMARK  158  A    between atoms: _390  and  _392
REMARK  159  A    between atoms: _392  and  _393
REMARK  160  A    between atoms: _392  and  _395
REMARK  161  A    between atoms: _395  and  _396
REMARK  162  A    between atoms: _398  and  _400
REMARK  163  A    between atoms: _400  and  _401
REMARK  164  A    between atoms: _400  and  _403
REMARK  165  A    between atoms: _403  and  _404
REMARK  166  A    between atoms: _410  and  _412
REMARK  167  A    between atoms: _412  and  _413
REMARK  168  A    between atoms: _412  and  _415
REMARK  169  A    between atoms: _415  and  _416
REMARK  170  A    between atoms: _419  and  _421
REMARK  171  A    between atoms: _421  and  _422
REMARK  172  A    between atoms: _421  and  _424
REMARK  173  A    between atoms: _424  and  _425
REMARK  174  A    between atoms: _435  and  _437
REMARK  175  A    between atoms: _437  and  _438
REMARK  176  A    between atoms: _440  and  _442
REMARK  177  A    between atoms: _442  and  _443
REMARK  178  A    between atoms: _442  and  _445
REMARK  179  A    between atoms: _445  and  _446
REMARK  180  A    between atoms: _449  and  _451
REMARK  181  A    between atoms: _451  and  _452
REMARK  182  A    between atoms: _451  and  _454
REMARK  183  A    between atoms: _454  and  _455
REMARK  184  A    between atoms: _465  and  _467
REMARK  185  A    between atoms: _467  and  _468
REMARK  186  A    between atoms: _467  and  _470
REMARK  187  A    between atoms: _470  and  _471
REMARK  188  A    between atoms: _473  and  _475
REMARK  189  A    between atoms: _475  and  _476
REMARK  190  A    between atoms: _475  and  _478
REMARK  191  A    between atoms: _478  and  _479
REMARK  192  A    between atoms: _482  and  _484
REMARK  193  A    between atoms: _484  and  _485
REMARK  194  A    between atoms: _484  and  _487
REMARK  195  A    between atoms: _490  and  _492
REMARK  196  A    between atoms: _492  and  _493
REMARK  197  A    between atoms: _492  and  _495
REMARK  198  A    between atoms: _495  and  _496
REMARK  199  A    between atoms: _496  and  _497
REMARK  200  A    between atoms: _502  and  _504
REMARK  201  A    between atoms: _504  and  _505
REMARK  202  A    between atoms: _504  and  _507
REMARK  203  A    between atoms: _507  and  _508
REMARK  204  A    between atoms: _510  and  _512
REMARK  205  A    between atoms: _512  and  _513
REMARK  206  A    between atoms: _512  and  _515
REMARK  207  A    between atoms: _515  and  _516
REMARK  208  A    between atoms: _518  and  _520
REMARK  209  A    between atoms: _520  and  _521
REMARK  210  A    between atoms: _520  and  _523
REMARK  211  A    between atoms: _523  and  _524
REMARK  212  A    between atoms: _527  and  _529
REMARK  213  A    between atoms: _529  and  _530
REMARK  214  A    between atoms: _529  and  _532
REMARK  215  A    between atoms: _532  and  _533
REMARK  216  A    between atoms: _533  and  _534
REMARK  217  A    between atoms: _537  and  _539
REMARK  218  A    between atoms: _539  and  _540
REMARK  219  A    between atoms: _539  and  _542
REMARK  220  A    between atoms: _542  and  _543
REMARK  221  A    between atoms: _549  and  _551
REMARK  222  A    between atoms: _551  and  _552
REMARK  223  A    between atoms: _554  and  _556
REMARK  224  A    between atoms: _556  and  _557
REMARK  225  A    between atoms: _556  and  _559
REMARK  226  A    between atoms: _559  and  _560
REMARK  227  A    between atoms: _565  and  _566
REMARK  228  A    between atoms: _568  and  _570
REMARK  229  A    between atoms: _570  and  _571
REMARK  230  A    between atoms: _570  and  _573
REMARK  231  A    between atoms: _573  and  _574
REMARK  232  A    between atoms: _579  and  _580
REMARK  233  A    between atoms: _582  and  _584
REMARK  234  A    between atoms: _584  and  _585
REMARK  235  A    between atoms: _588  and  _590
REMARK  236  A    between atoms: _590  and  _591
REMARK  237  A    between atoms: _590  and  _593
REMARK  238  A    between atoms: _593  and  _594
REMARK  239  A    between atoms: _594  and  _595
REMARK  240  A    between atoms: _595  and  _596
REMARK                            x       y       z     vdW  Elec       q    Type
REMARK                         _______ _______ _______ _____ _____    ______ ____
ROOT
ATOM      1  O   HOH     1      15.569 -14.487  10.403  0.00  0.00    +0.000 OA
ENDROOT
TORSDOF 0
REMARK  Name = ../refined-set-2016/4cg8/4cg8_pocket.pdb
REMARK  240 active torsions:
REMARK  status: ('A' for Active; 'I' for Inactive)
REMARK    1  A    between atoms: _1  and  _3
REMARK    2  A    between atoms: _3  and  _4
REMARK    3  A    between atoms: _3  and  _6
REMARK    4  A    between atoms: _6  and  _7
REMARK    5  A    between atoms: _7  and  _8
REMARK    6  A    between atoms: _8  and  _9
REMARK    7  A    between atoms: _18  and  _20
REMARK    8  A    between atoms: _20  and  _21
REMARK    9  A    between atoms: _20  and  _23
REMARK   10  A    between atoms: _23  and  _24
REMARK   11  A    between atoms: _26  and  _28
REMARK   12  A    between atoms: _28  and  _29
REMARK   13  A    between atoms: _28  and  _31
REMARK   14  A    between atoms: _31  and  _32
REMARK   15  A    between atoms: _37  and  _39
REMARK   16  A    between atoms: _39  and  _40
REMARK   17  A    between atoms: _39  and  _42
REMARK   18  A    between atoms: _42  and  _43
REMARK   19  A    between atoms: _46  and  _48
REMARK   20  A    between atoms: _48  and  _49
REMARK   21  A    between atoms: _48  and  _51
REMARK   22  A    between atoms: _51  and  _52
REMARK   23  A    between atoms: _62  and  _64
REMARK   24  A    between atoms: _64  and  _65
REMARK   25  A    between atoms: _64  and  _67
REMARK   26  A    between atoms: _67  and  _68
REMARK   27  A    between atoms: _71  and  _73
REMARK   28  A    between atoms: _73  and  _74
REMARK   29  A    between atoms: _76  and  _78
REMARK   30  A    between atoms: _78  and  _79
REMARK   31  A    between atoms: _78  and  _81
REMARK   32  A    between atoms: _81  and  _82
REMARK   33  A    between atoms: _85  and  _87
REMARK   34  A    between atoms: _87  and  _88
REMARK   35  A    between atoms: _87  and  _90
REMARK   36  A    between atoms: _90  and  _91
REMARK   37  A    between atoms: _91  and  _92
REMARK   38  A    between atoms: _94  and  _96
REMARK   39  A    between atoms: _96  and  _97
REMARK   40  A    between atoms: _96  and  _99
REMARK   41  A    between atoms: _99  and  _100
REMARK   42  A    between atoms: _100  and  _101
REMARK   43  A    between atoms: _104  and  _106
REMARK   44  A    between atoms: _106  and  _107
REMARK   45  A    between atoms: _106  and  _109
REMARK   46  A    between atoms: _109  and  _110
REMARK   47  A    between atoms: _110  and  _111
REMARK   48  A    between atoms: _111  and  _112
REMARK   49  A    between atoms: _112  and  _113
REMARK   50  A    between atoms: _117  and  _119
REMARK   51  A    between atoms: _119  and  _120
REMARK   52  A    between atoms: _119  and  _122
REMARK   53  A    between atoms: _122  and  _123
REMARK   54  A    between atoms: _128  and  _129
REMARK   55  A    between atoms: _131  and  _133
REMARK   56  A    between atoms: _133  and  _134
REMARK   57  A    between atoms: _133  and  _136
REMARK   58  A    between atoms: _136  and  _137
REMARK   59  A    between atoms: _140  and  _142
REMARK   60  A    between atoms: _142  and  _143
REMARK   61  A    between atoms: _142  and  _145
REMARK   62  A    between atoms: _145  and  _146
REMARK   63  A    between atoms: _151  and  _153
REMARK   64  A    between atoms: _153  and  _154
REMARK   65  A    between atoms: _153  and  _156
REMARK   66  A    between atoms: _156  and  _157
REMARK   67  A    between atoms: _162  and  _164
REMARK   68  A    between atoms: _164  and  _165
REMARK   69  A    between atoms: _164  and  _167
REMARK   70  A    between atoms: _167  and  _168
REMARK   71  A    between atoms: _171  and  _173
REMARK   72  A    between atoms: _173  and  _174
REMARK   73  A    between atoms: _173  and  _176
REMARK   74  A    between atoms: _178  and  _180
REMARK   75  A    between atoms: _180  and  _181
REMARK   76  A    between atoms: _180  and  _183
REMARK   77  A    between atoms: _183  and  _184
REMARK   78  A    between atoms: _184  and  _185
REMARK   79  A    between atoms: _190  and  _192
REMARK   80  A    between atoms: _192  and  _193
REMARK   81  A    between atoms: _192  and  _195
REMARK   82  A    between atoms: _195  and  _196
REMARK   83  A    between atoms: _196  and  _197
REMARK   84  A    between atoms: _200  and  _202
REMARK   85  A    between atoms: _202  and  _203
REMARK   86  A    between atoms: _205  and  _207
REMARK   87  A    between atoms: _207  and  _208
REMARK   88  A    between atoms: _207  and  _210
REMARK   89  A    between atoms: _210  and  _211
REMARK   90  A    between atoms: _216  and  _218
REMARK   91  A    between atoms: _218  and  _219
REMARK   92  A    between atoms: _218  and  _221
REMARK   93  A    between atoms: _221  and  _222
REMARK   94  A    between atoms: _225  and  _227
REMARK   95  A    between atoms: _227  and  _228
REMARK   96  A    between atoms: _227  and  _230
REMARK   97  A    between atoms: _230  and  _231
REMARK   98  A    between atoms: _231  and  _232
REMARK   99  A    between atoms: _235  and  _237
REMARK  100  A    between atoms: _237  and  _238
REMARK  101  A    between atoms: _237  and  _240
REMARK  102  A    between atoms: _240  and  _241
REMARK  103  A    between atoms: _246  and  _247
REMARK  104  A    between atoms: _249  and  _251
REMARK  105  A    between atoms: _251  and  _252
REMARK  106  A    between atoms: _251  and  _254
REMARK  107  A    between atoms: _254  and  _255
REMARK  108  A    between atoms: _257  and  _259
REMARK  109  A    between atoms: _259  and  _260
REMARK  110  A    between atoms: _259  and  _262
REMARK  111  A    between atoms: _262  and  _263
REMARK  112  A    between atoms: _268  and  _270
REMARK  113  A    between atoms: _270  and  _271
REMARK  114  A    between atoms: _270  and  _273
REMARK  115  A    between atoms: _273  and  _274
REMARK  116  A    between atoms: _280  and  _282
REMARK  117  A    between atoms: _282  and  _283
REMARK  118  A    between atoms: _282  and  _285
REMARK  119  A    between atoms: _285  and  _286
REMARK  120  A    between atoms: _291  and  _293
REMARK  121  A    between atoms: _293  and  _294
REMARK  122  A    between atoms: _293  and  _296
REMARK  123  A    between atoms: _296  and  _297
REMARK  124  A    between atoms: _297  and  _298
REMARK  125  A    between atoms: _301  and  _303
REMARK  126  A    between atoms: _303  and  _304
REMARK  127  A    between atoms: _303  and  _306
REMARK  128  A    between atoms: _306  and  _307
REMARK  129  A    between atoms: _312  and  _313
REMARK  130  A    between atoms: _315  and  _317
REMARK  131  A    between atoms: _317  and  _318
REMARK  132  A    between atoms: _317  and  _320
REMARK  133  A    between atoms: _320  and  _321
REMARK  134  A    between atoms: _324  and  _326
REMARK  135  A    between atoms: _326  and  _327
REMARK  136  A    between atoms: _326  and  _329
REMARK  137  A    between atoms: _329  and  _330
REMARK  138  A    between atoms: _335  and  _336
REMARK  139  A    between atoms: _338  and  _340
REMARK  140  A    between atoms: _340  and  _341
REMARK  141  A    between atoms: _340  and  _343
REMARK  142  A    between atoms: _343  and  _344
REMARK  143  A    between atoms: _346  and  _348
REMARK  144  A    between atoms: _348  and  _349
REMARK  145  A    between atoms: _348  and  _351
REMARK  146  A    between atoms: _351  and  _352
REMARK  147  A    between atoms: _357  and  _358
REMARK  148  A    between atoms: _360  and  _362
REMARK  149  A    between atoms: _362  and  _363
REMARK  150  A    between atoms: _362  and  _365
REMARK  151  A    between atoms: _365  and  _366
REMARK  152  A    between atoms: _372  and  _374
REMARK  153  A    between atoms: _374  and  _375
REMARK  154  A    between atoms: _374  and  _377
REMARK  155  A    between atoms: _377  and  _378
REMARK  156  A    between atoms: _384  and  _386
REMARK  157  A    between atoms: _386  and  _387
REMARK  158  A    between atoms: _390  and  _392
REMARK  159  A    between atoms: _392  and  _393
REMARK  160  A    between atoms: _392  and  _395
REMARK  161  A    between atoms: _395  and  _396
REMARK  162  A    between atoms: _398  and  _400
REMARK  163  A    between atoms: _400  and  _401
REMARK  164  A    between atoms: _400  and  _403
REMARK  165  A    between atoms: _403  and  _404
REMARK  166  A    between atoms: _410  and  _412
REMARK  167  A    between atoms: _412  and  _413
REMARK  168  A    between atoms: _412  and  _415
REMARK  169  A    between atoms: _415  and  _416
REMARK  170  A    between atoms: _419  and  _421
REMARK  171  A    between atoms: _421  and  _422
REMARK  172  A    between atoms: _421  and  _424
REMARK  173  A    between atoms: _424  and  _425
REMARK  174  A    between atoms: _435  and  _437
REMARK  175  A    between atoms: _437  and  _438
REMARK  176  A    between atoms: _440  and  _442
REMARK  177  A    between atoms: _442  and  _443
REMARK  178  A    between atoms: _442  and  _445
REMARK  179  A    between atoms: _445  and  _446
REMARK  180  A    between atoms: _449  and  _451
REMARK  181  A    between atoms: _451  and  _452
REMARK  182  A    between atoms: _451  and  _454
REMARK  183  A    between atoms: _454  and  _455
REMARK  184  A    between atoms: _465  and  _467
REMARK  185  A    between atoms: _467  and  _468
REMARK  186  A    between atoms: _467  and  _470
REMARK  187  A    between atoms: _470  and  _471
REMARK  188  A    between atoms: _473  and  _475
REMARK  189  A    between atoms: _475  and  _476
REMARK  190  A    between atoms: _475  and  _478
REMARK  191  A    between atoms: _478  and  _479
REMARK  192  A    between atoms: _482  and  _484
REMARK  193  A    between atoms: _484  and  _485
REMARK  194  A    between atoms: _484  and  _487
REMARK  195  A    between atoms: _490  and  _492
REMARK  196  A    between atoms: _492  and  _493
REMARK  197  A    between atoms: _492  and  _495
REMARK  198  A    between atoms: _495  and  _496
REMARK  199  A    between atoms: _496  and  _497
REMARK  200  A    between atoms: _502  and  _504
REMARK  201  A    between atoms: _504  and  _505
REMARK  202  A    between atoms: _504  and  _507
REMARK  203  A    between atoms: _507  and  _508
REMARK  204  A    between atoms: _510  and  _512
REMARK  205  A    between atoms: _512  and  _513
REMARK  206  A    between atoms: _512  and  _515
REMARK  207  A    between atoms: _515  and  _516
REMARK  208  A    between atoms: _518  and  _520
REMARK  209  A    between atoms: _520  and  _521
REMARK  210  A    between atoms: _520  and  _523
REMARK  211  A    between atoms: _523  and  _524
REMARK  212  A    between atoms: _527  and  _529
REMARK  213  A    between atoms: _529  and  _530
REMARK  214  A    between atoms: _529  and  _532
REMARK  215  A    between atoms: _532  and  _533
REMARK  216  A    between atoms: _533  and  _534
REMARK  217  A    between atoms: _537  and  _539
REMARK  218  A    between atoms: _539  and  _540
REMARK  219  A    between atoms: _539  and  _542
REMARK  220  A    between atoms: _542  and  _543
REMARK  221  A    between atoms: _549  and  _551
REMARK  222  A    between atoms: _551  and  _552
REMARK  223  A    between atoms: _554  and  _556
REMARK  224  A    between atoms: _556  and  _557
REMARK  225  A    between atoms: _556  and  _559
REMARK  226  A    between atoms: _559  and  _560
REMARK  227  A    between atoms: _565  and  _566
REMARK  228  A    between atoms: _568  and  _570
REMARK  229  A    between atoms: _570  and  _571
REMARK  230  A    between atoms: _570  and  _573
REMARK  231  A    between atoms: _573  and  _574
REMARK  232  A    between atoms: _579  and  _580
REMARK  233  A    between atoms: _582  and  _584
REMARK  234  A    between atoms: _584  and  _585
REMARK  235  A    between atoms: _588  and  _590
REMARK  236  A    between atoms: _590  and  _591
REMARK  237  A    between atoms: _590  and  _593
REMARK  238  A    between atoms: _593  and  _594
REMARK  239  A    between atoms: _594  and  _595
REMARK  240  A    between atoms: _595  and  _596
REMARK                            x       y       z     vdW  Elec       q    Type
REMARK                         _______ _______ _______ _____ _____    ______ ____
ROOT
ATOM      1  O   HOH     1      19.930 -17.145   4.779  0.00  0.00    +0.000 OA
ENDROOT
TORSDOF 0
REMARK  Name = ../refined-set-2016/4cg8/4cg8_pocket.pdb
REMARK  240 active torsions:
REMARK  status: ('A' for Active; 'I' for Inactive)
REMARK    1  A    between atoms: _1  and  _3
REMARK    2  A    between atoms: _3  and  _4
REMARK    3  A    between atoms: _3  and  _6
REMARK    4  A    between atoms: _6  and  _7
REMARK    5  A    between atoms: _7  and  _8
REMARK    6  A    between atoms: _8  and  _9
REMARK    7  A    between atoms: _18  and  _20
REMARK    8  A    between atoms: _20  and  _21
REMARK    9  A    between atoms: _20  and  _23
REMARK   10  A    between atoms: _23  and  _24
REMARK   11  A    between atoms: _26  and  _28
REMARK   12  A    between atoms: _28  and  _29
REMARK   13  A    between atoms: _28  and  _31
REMARK   14  A    between atoms: _31  and  _32
REMARK   15  A    between atoms: _37  and  _39
REMARK   16  A    between atoms: _39  and  _40
REMARK   17  A    between atoms: _39  and  _42
REMARK   18  A    between atoms: _42  and  _43
REMARK   19  A    between atoms: _46  and  _48
REMARK   20  A    between atoms: _48  and  _49
REMARK   21  A    between atoms: _48  and  _51
REMARK   22  A    between atoms: _51  and  _52
REMARK   23  A    between atoms: _62  and  _64
REMARK   24  A    between atoms: _64  and  _65
REMARK   25  A    between atoms: _64  and  _67
REMARK   26  A    between atoms: _67  and  _68
REMARK   27  A    between atoms: _71  and  _73
REMARK   28  A    between atoms: _73  and  _74
REMARK   29  A    between atoms: _76  and  _78
REMARK   30  A    between atoms: _78  and  _79
REMARK   31  A    between atoms: _78  and  _81
REMARK   32  A    between atoms: _81  and  _82
REMARK   33  A    between atoms: _85  and  _87
REMARK   34  A    between atoms: _87  and  _88
REMARK   35  A    between atoms: _87  and  _90
REMARK   36  A    between atoms: _90  and  _91
REMARK   37  A    between atoms: _91  and  _92
REMARK   38  A    between atoms: _94  and  _96
REMARK   39  A    between atoms: _96  and  _97
REMARK   40  A    between atoms: _96  and  _99
REMARK   41  A    between atoms: _99  and  _100
REMARK   42  A    between atoms: _100  and  _101
REMARK   43  A    between atoms: _104  and  _106
REMARK   44  A    between atoms: _106  and  _107
REMARK   45  A    between atoms: _106  and  _109
REMARK   46  A    between atoms: _109  and  _110
REMARK   47  A    between atoms: _110  and  _111
REMARK   48  A    between atoms: _111  and  _112
REMARK   49  A    between atoms: _112  and  _113
REMARK   50  A    between atoms: _117  and  _119
REMARK   51  A    between atoms: _119  and  _120
REMARK   52  A    between atoms: _119  and  _122
REMARK   53  A    between atoms: _122  and  _123
REMARK   54  A    between atoms: _128  and  _129
REMARK   55  A    between atoms: _131  and  _133
REMARK   56  A    between atoms: _133  and  _134
REMARK   57  A    between atoms: _133  and  _136
REMARK   58  A    between atoms: _136  and  _137
REMARK   59  A    between atoms: _140  and  _142
REMARK   60  A    between atoms: _142  and  _143
REMARK   61  A    between atoms: _142  and  _145
REMARK   62  A    between atoms: _145  and  _146
REMARK   63  A    between atoms: _151  and  _153
REMARK   64  A    between atoms: _153  and  _154
REMARK   65  A    between atoms: _153  and  _156
REMARK   66  A    between atoms: _156  and  _157
REMARK   67  A    between atoms: _162  and  _164
REMARK   68  A    between atoms: _164  and  _165
REMARK   69  A    between atoms: _164  and  _167
REMARK   70  A    between atoms: _167  and  _168
REMARK   71  A    between atoms: _171  and  _173
REMARK   72  A    between atoms: _173  and  _174
REMARK   73  A    between atoms: _173  and  _176
REMARK   74  A    between atoms: _178  and  _180
REMARK   75  A    between atoms: _180  and  _181
REMARK   76  A    between atoms: _180  and  _183
REMARK   77  A    between atoms: _183  and  _184
REMARK   78  A    between atoms: _184  and  _185
REMARK   79  A    between atoms: _190  and  _192
REMARK   80  A    between atoms: _192  and  _193
REMARK   81  A    between atoms: _192  and  _195
REMARK   82  A    between atoms: _195  and  _196
REMARK   83  A    between atoms: _196  and  _197
REMARK   84  A    between atoms: _200  and  _202
REMARK   85  A    between atoms: _202  and  _203
REMARK   86  A    between atoms: _205  and  _207
REMARK   87  A    between atoms: _207  and  _208
REMARK   88  A    between atoms: _207  and  _210
REMARK   89  A    between atoms: _210  and  _211
REMARK   90  A    between atoms: _216  and  _218
REMARK   91  A    between atoms: _218  and  _219
REMARK   92  A    between atoms: _218  and  _221
REMARK   93  A    between atoms: _221  and  _222
REMARK   94  A    between atoms: _225  and  _227
REMARK   95  A    between atoms: _227  and  _228
REMARK   96  A    between atoms: _227  and  _230
REMARK   97  A    between atoms: _230  and  _231
REMARK   98  A    between atoms: _231  and  _232
REMARK   99  A    between atoms: _235  and  _237
REMARK  100  A    between atoms: _237  and  _238
REMARK  101  A    between atoms: _237  and  _240
REMARK  102  A    between atoms: _240  and  _241
REMARK  103  A    between atoms: _246  and  _247
REMARK  104  A    between atoms: _249  and  _251
REMARK  105  A    between atoms: _251  and  _252
REMARK  106  A    between atoms: _251  and  _254
REMARK  107  A    between atoms: _254  and  _255
REMARK  108  A    between atoms: _257  and  _259
REMARK  109  A    between atoms: _259  and  _260
REMARK  110  A    between atoms: _259  and  _262
REMARK  111  A    between atoms: _262  and  _263
REMARK  112  A    between atoms: _268  and  _270
REMARK  113  A    between atoms: _270  and  _271
REMARK  114  A    between atoms: _270  and  _273
REMARK  115  A    between atoms: _273  and  _274
REMARK  116  A    between atoms: _280  and  _282
REMARK  117  A    between atoms: _282  and  _283
REMARK  118  A    between atoms: _282  and  _285
REMARK  119  A    between atoms: _285  and  _286
REMARK  120  A    between atoms: _291  and  _293
REMARK  121  A    between atoms: _293  and  _294
REMARK  122  A    between atoms: _293  and  _296
REMARK  123  A    between atoms: _296  and  _297
REMARK  124  A    between atoms: _297  and  _298
REMARK  125  A    between atoms: _301  and  _303
REMARK  126  A    between atoms: _303  and  _304
REMARK  127  A    between atoms: _303  and  _306
REMARK  128  A    between atoms: _306  and  _307
REMARK  129  A    between atoms: _312  and  _313
REMARK  130  A    between atoms: _315  and  _317
REMARK  131  A    between atoms: _317  and  _318
REMARK  132  A    between atoms: _317  and  _320
REMARK  133  A    between atoms: _320  and  _321
REMARK  134  A    between atoms: _324  and  _326
REMARK  135  A    between atoms: _326  and  _327
REMARK  136  A    between atoms: _326  and  _329
REMARK  137  A    between atoms: _329  and  _330
REMARK  138  A    between atoms: _335  and  _336
REMARK  139  A    between atoms: _338  and  _340
REMARK  140  A    between atoms: _340  and  _341
REMARK  141  A    between atoms: _340  and  _343
REMARK  142  A    between atoms: _343  and  _344
REMARK  143  A    between atoms: _346  and  _348
REMARK  144  A    between atoms: _348  and  _349
REMARK  145  A    between atoms: _348  and  _351
REMARK  146  A    between atoms: _351  and  _352
REMARK  147  A    between atoms: _357  and  _358
REMARK  148  A    between atoms: _360  and  _362
REMARK  149  A    between atoms: _362  and  _363
REMARK  150  A    between atoms: _362  and  _365
REMARK  151  A    between atoms: _365  and  _366
REMARK  152  A    between atoms: _372  and  _374
REMARK  153  A    between atoms: _374  and  _375
REMARK  154  A    between atoms: _374  and  _377
REMARK  155  A    between atoms: _377  and  _378
REMARK  156  A    between atoms: _384  and  _386
REMARK  157  A    between atoms: _386  and  _387
REMARK  158  A    between atoms: _390  and  _392
REMARK  159  A    between atoms: _392  and  _393
REMARK  160  A    between atoms: _392  and  _395
REMARK  161  A    between atoms: _395  and  _396
REMARK  162  A    between atoms: _398  and  _400
REMARK  163  A    between atoms: _400  and  _401
REMARK  164  A    between atoms: _400  and  _403
REMARK  165  A    between atoms: _403  and  _404
REMARK  166  A    between atoms: _410  and  _412
REMARK  167  A    between atoms: _412  and  _413
REMARK  168  A    between atoms: _412  and  _415
REMARK  169  A    between atoms: _415  and  _416
REMARK  170  A    between atoms: _419  and  _421
REMARK  171  A    between atoms: _421  and  _422
REMARK  172  A    between atoms: _421  and  _424
REMARK  173  A    between atoms: _424  and  _425
REMARK  174  A    between atoms: _435  and  _437
REMARK  175  A    between atoms: _437  and  _438
REMARK  176  A    between atoms: _440  and  _442
REMARK  177  A    between atoms: _442  and  _443
REMARK  178  A    between atoms: _442  and  _445
REMARK  179  A    between atoms: _445  and  _446
REMARK  180  A    between atoms: _449  and  _451
REMARK  181  A    between atoms: _451  and  _452
REMARK  182  A    between atoms: _451  and  _454
REMARK  183  A    between atoms: _454  and  _455
REMARK  184  A    between atoms: _465  and  _467
REMARK  185  A    between atoms: _467  and  _468
REMARK  186  A    between atoms: _467  and  _470
REMARK  187  A    between atoms: _470  and  _471
REMARK  188  A    between atoms: _473  and  _475
REMARK  189  A    between atoms: _475  and  _476
REMARK  190  A    between atoms: _475  and  _478
REMARK  191  A    between atoms: _478  and  _479
REMARK  192  A    between atoms: _482  and  _484
REMARK  193  A    between atoms: _484  and  _485
REMARK  194  A    between atoms: _484  and  _487
REMARK  195  A    between atoms: _490  and  _492
REMARK  196  A    between atoms: _492  and  _493
REMARK  197  A    between atoms: _492  and  _495
REMARK  198  A    between atoms: _495  and  _496
REMARK  199  A    between atoms: _496  and  _497
REMARK  200  A    between atoms: _502  and  _504
REMARK  201  A    between atoms: _504  and  _505
REMARK  202  A    between atoms: _504  and  _507
REMARK  203  A    between atoms: _507  and  _508
REMARK  204  A    between atoms: _510  and  _512
REMARK  205  A    between atoms: _512  and  _513
REMARK  206  A    between atoms: _512  and  _515
REMARK  207  A    between atoms: _515  and  _516
REMARK  208  A    between atoms: _518  and  _520
REMARK  209  A    between atoms: _520  and  _521
REMARK  210  A    between atoms: _520  and  _523
REMARK  211  A    between atoms: _523  and  _524
REMARK  212  A    between atoms: _527  and  _529
REMARK  213  A    between atoms: _529  and  _530
REMARK  214  A    between atoms: _529  and  _532
REMARK  215  A    between atoms: _532  and  _533
REMARK  216  A    between atoms: _533  and  _534
REMARK  217  A    between atoms: _537  and  _539
REMARK  218  A    between atoms: _539  and  _540
REMARK  219  A    between atoms: _539  and  _542
REMARK  220  A    between atoms: _542  and  _543
REMARK  221  A    between atoms: _549  and  _551
REMARK  222  A    between atoms: _551  and  _552
REMARK  223  A    between atoms: _554  and  _556
REMARK  224  A    between atoms: _556  and  _557
REMARK  225  A    between atoms: _556  and  _559
REMARK  226  A    between atoms: _559  and  _560
REMARK  227  A    between atoms: _565  and  _566
REMARK  228  A    between atoms: _568  and  _570
REMARK  229  A    between atoms: _570  and  _571
REMARK  230  A    between atoms: _570  and  _573
REMARK  231  A    between atoms: _573  and  _574
REMARK  232  A    between atoms: _579  and  _580
REMARK  233  A    between atoms: _582  and  _584
REMARK  234  A    between atoms: _584  and  _585
REMARK  235  A    between atoms: _588  and  _590
REMARK  236  A    between atoms: _590  and  _591
REMARK  237  A    between atoms: _590  and  _593
REMARK  238  A    between atoms: _593  and  _594
REMARK  239  A    between atoms: _594  and  _595
REMARK  240  A    between atoms: _595  and  _596
REMARK                            x       y       z     vdW  Elec       q    Type
REMARK                         _______ _______ _______ _____ _____    ______ ____
ROOT
ATOM      1  O   HOH     1      15.063 -19.240  12.416  0.00  0.00    +0.000 OA
ENDROOT
TORSDOF 0
REMARK  Name = ../refined-set-2016/4cg8/4cg8_pocket.pdb
REMARK  240 active torsions:
REMARK  status: ('A' for Active; 'I' for Inactive)
REMARK    1  A    between atoms: _1  and  _3
REMARK    2  A    between atoms: _3  and  _4
REMARK    3  A    between atoms: _3  and  _6
REMARK    4  A    between atoms: _6  and  _7
REMARK    5  A    between atoms: _7  and  _8
REMARK    6  A    between atoms: _8  and  _9
REMARK    7  A    between atoms: _18  and  _20
REMARK    8  A    between atoms: _20  and  _21
REMARK    9  A    between atoms: _20  and  _23
REMARK   10  A    between atoms: _23  and  _24
REMARK   11  A    between atoms: _26  and  _28
REMARK   12  A    between atoms: _28  and  _29
REMARK   13  A    between atoms: _28  and  _31
REMARK   14  A    between atoms: _31  and  _32
REMARK   15  A    between atoms: _37  and  _39
REMARK   16  A    between atoms: _39  and  _40
REMARK   17  A    between atoms: _39  and  _42
REMARK   18  A    between atoms: _42  and  _43
REMARK   19  A    between atoms: _46  and  _48
REMARK   20  A    between atoms: _48  and  _49
REMARK   21  A    between atoms: _48  and  _51
REMARK   22  A    between atoms: _51  and  _52
REMARK   23  A    between atoms: _62  and  _64
REMARK   24  A    between atoms: _64  and  _65
REMARK   25  A    between atoms: _64  and  _67
REMARK   26  A    between atoms: _67  and  _68
REMARK   27  A    between atoms: _71  and  _73
REMARK   28  A    between atoms: _73  and  _74
REMARK   29  A    between atoms: _76  and  _78
REMARK   30  A    between atoms: _78  and  _79
REMARK   31  A    between atoms: _78  and  _81
REMARK   32  A    between atoms: _81  and  _82
REMARK   33  A    between atoms: _85  and  _87
REMARK   34  A    between atoms: _87  and  _88
REMARK   35  A    between atoms: _87  and  _90
REMARK   36  A    between atoms: _90  and  _91
REMARK   37  A    between atoms: _91  and  _92
REMARK   38  A    between atoms: _94  and  _96
REMARK   39  A    between atoms: _96  and  _97
REMARK   40  A    between atoms: _96  and  _99
REMARK   41  A    between atoms: _99  and  _100
REMARK   42  A    between atoms: _100  and  _101
REMARK   43  A    between atoms: _104  and  _106
REMARK   44  A    between atoms: _106  and  _107
REMARK   45  A    between atoms: _106  and  _109
REMARK   46  A    between atoms: _109  and  _110
REMARK   47  A    between atoms: _110  and  _111
REMARK   48  A    between atoms: _111  and  _112
REMARK   49  A    between atoms: _112  and  _113
REMARK   50  A    between atoms: _117  and  _119
REMARK   51  A    between atoms: _119  and  _120
REMARK   52  A    between atoms: _119  and  _122
REMARK   53  A    between atoms: _122  and  _123
REMARK   54  A    between atoms: _128  and  _129
REMARK   55  A    between atoms: _131  and  _133
REMARK   56  A    between atoms: _133  and  _134
REMARK   57  A    between atoms: _133  and  _136
REMARK   58  A    between atoms: _136  and  _137
REMARK   59  A    between atoms: _140  and  _142
REMARK   60  A    between atoms: _142  and  _143
REMARK   61  A    between atoms: _142  and  _145
REMARK   62  A    between atoms: _145  and  _146
REMARK   63  A    between atoms: _151  and  _153
REMARK   64  A    between atoms: _153  and  _154
REMARK   65  A    between atoms: _153  and  _156
REMARK   66  A    between atoms: _156  and  _157
REMARK   67  A    between atoms: _162  and  _164
REMARK   68  A    between atoms: _164  and  _165
REMARK   69  A    between atoms: _164  and  _167
REMARK   70  A    between atoms: _167  and  _168
REMARK   71  A    between atoms: _171  and  _173
REMARK   72  A    between atoms: _173  and  _174
REMARK   73  A    between atoms: _173  and  _176
REMARK   74  A    between atoms: _178  and  _180
REMARK   75  A    between atoms: _180  and  _181
REMARK   76  A    between atoms: _180  and  _183
REMARK   77  A    between atoms: _183  and  _184
REMARK   78  A    between atoms: _184  and  _185
REMARK   79  A    between atoms: _190  and  _192
REMARK   80  A    between atoms: _192  and  _193
REMARK   81  A    between atoms: _192  and  _195
REMARK   82  A    between atoms: _195  and  _196
REMARK   83  A    between atoms: _196  and  _197
REMARK   84  A    between atoms: _200  and  _202
REMARK   85  A    between atoms: _202  and  _203
REMARK   86  A    between atoms: _205  and  _207
REMARK   87  A    between atoms: _207  and  _208
REMARK   88  A    between atoms: _207  and  _210
REMARK   89  A    between atoms: _210  and  _211
REMARK   90  A    between atoms: _216  and  _218
REMARK   91  A    between atoms: _218  and  _219
REMARK   92  A    between atoms: _218  and  _221
REMARK   93  A    between atoms: _221  and  _222
REMARK   94  A    between atoms: _225  and  _227
REMARK   95  A    between atoms: _227  and  _228
REMARK   96  A    between atoms: _227  and  _230
REMARK   97  A    between atoms: _230  and  _231
REMARK   98  A    between atoms: _231  and  _232
REMARK   99  A    between atoms: _235  and  _237
REMARK  100  A    between atoms: _237  and  _238
REMARK  101  A    between atoms: _237  and  _240
REMARK  102  A    between atoms: _240  and  _241
REMARK  103  A    between atoms: _246  and  _247
REMARK  104  A    between atoms: _249  and  _251
REMARK  105  A    between atoms: _251  and  _252
REMARK  106  A    between atoms: _251  and  _254
REMARK  107  A    between atoms: _254  and  _255
REMARK  108  A    between atoms: _257  and  _259
REMARK  109  A    between atoms: _259  and  _260
REMARK  110  A    between atoms: _259  and  _262
REMARK  111  A    between atoms: _262  and  _263
REMARK  112  A    between atoms: _268  and  _270
REMARK  113  A    between atoms: _270  and  _271
REMARK  114  A    between atoms: _270  and  _273
REMARK  115  A    between atoms: _273  and  _274
REMARK  116  A    between atoms: _280  and  _282
REMARK  117  A    between atoms: _282  and  _283
REMARK  118  A    between atoms: _282  and  _285
REMARK  119  A    between atoms: _285  and  _286
REMARK  120  A    between atoms: _291  and  _293
REMARK  121  A    between atoms: _293  and  _294
REMARK  122  A    between atoms: _293  and  _296
REMARK  123  A    between atoms: _296  and  _297
REMARK  124  A    between atoms: _297  and  _298
REMARK  125  A    between atoms: _301  and  _303
REMARK  126  A    between atoms: _303  and  _304
REMARK  127  A    between atoms: _303  and  _306
REMARK  128  A    between atoms: _306  and  _307
REMARK  129  A    between atoms: _312  and  _313
REMARK  130  A    between atoms: _315  and  _317
REMARK  131  A    between atoms: _317  and  _318
REMARK  132  A    between atoms: _317  and  _320
REMARK  133  A    between atoms: _320  and  _321
REMARK  134  A    between atoms: _324  and  _326
REMARK  135  A    between atoms: _326  and  _327
REMARK  136  A    between atoms: _326  and  _329
REMARK  137  A    between atoms: _329  and  _330
REMARK  138  A    between atoms: _335  and  _336
REMARK  139  A    between atoms: _338  and  _340
REMARK  140  A    between atoms: _340  and  _341
REMARK  141  A    between atoms: _340  and  _343
REMARK  142  A    between atoms: _343  and  _344
REMARK  143  A    between atoms: _346  and  _348
REMARK  144  A    between atoms: _348  and  _349
REMARK  145  A    between atoms: _348  and  _351
REMARK  146  A    between atoms: _351  and  _352
REMARK  147  A    between atoms: _357  and  _358
REMARK  148  A    between atoms: _360  and  _362
REMARK  149  A    between atoms: _362  and  _363
REMARK  150  A    between atoms: _362  and  _365
REMARK  151  A    between atoms: _365  and  _366
REMARK  152  A    between atoms: _372  and  _374
REMARK  153  A    between atoms: _374  and  _375
REMARK  154  A    between atoms: _374  and  _377
REMARK  155  A    between atoms: _377  and  _378
REMARK  156  A    between atoms: _384  and  _386
REMARK  157  A    between atoms: _386  and  _387
REMARK  158  A    between atoms: _390  and  _392
REMARK  159  A    between atoms: _392  and  _393
REMARK  160  A    between atoms: _392  and  _395
REMARK  161  A    between atoms: _395  and  _396
REMARK  162  A    between atoms: _398  and  _400
REMARK  163  A    between atoms: _400  and  _401
REMARK  164  A    between atoms: _400  and  _403
REMARK  165  A    between atoms: _403  and  _404
REMARK  166  A    between atoms: _410  and  _412
REMARK  167  A    between atoms: _412  and  _413
REMARK  168  A    between atoms: _412  and  _415
REMARK  169  A    between atoms: _415  and  _416
REMARK  170  A    between atoms: _419  and  _421
REMARK  171  A    between atoms: _421  and  _422
REMARK  172  A    between atoms: _421  and  _424
REMARK  173  A    between atoms: _424  and  _425
REMARK  174  A    between atoms: _435  and  _437
REMARK  175  A    between atoms: _437  and  _438
REMARK  176  A    between atoms: _440  and  _442
REMARK  177  A    between atoms: _442  and  _443
REMARK  178  A    between atoms: _442  and  _445
REMARK  179  A    between atoms: _445  and  _446
REMARK  180  A    between atoms: _449  and  _451
REMARK  181  A    between atoms: _451  and  _452
REMARK  182  A    between atoms: _451  and  _454
REMARK  183  A    between atoms: _454  and  _455
REMARK  184  A    between atoms: _465  and  _467
REMARK  185  A    between atoms: _467  and  _468
REMARK  186  A    between atoms: _467  and  _470
REMARK  187  A    between atoms: _470  and  _471
REMARK  188  A    between atoms: _473  and  _475
REMARK  189  A    between atoms: _475  and  _476
REMARK  190  A    between atoms: _475  and  _478
REMARK  191  A    between atoms: _478  and  _479
REMARK  192  A    between atoms: _482  and  _484
REMARK  193  A    between atoms: _484  and  _485
REMARK  194  A    between atoms: _484  and  _487
REMARK  195  A    between atoms: _490  and  _492
REMARK  196  A    between atoms: _492  and  _493
REMARK  197  A    between atoms: _492  and  _495
REMARK  198  A    between atoms: _495  and  _496
REMARK  199  A    between atoms: _496  and  _497
REMARK  200  A    between atoms: _502  and  _504
REMARK  201  A    between atoms: _504  and  _505
REMARK  202  A    between atoms: _504  and  _507
REMARK  203  A    between atoms: _507  and  _508
REMARK  204  A    between atoms: _510  and  _512
REMARK  205  A    between atoms: _512  and  _513
REMARK  206  A    between atoms: _512  and  _515
REMARK  207  A    between atoms: _515  and  _516
REMARK  208  A    between atoms: _518  and  _520
REMARK  209  A    between atoms: _520  and  _521
REMARK  210  A    between atoms: _520  and  _523
REMARK  211  A    between atoms: _523  and  _524
REMARK  212  A    between atoms: _527  and  _529
REMARK  213  A    between atoms: _529  and  _530
REMARK  214  A    between atoms: _529  and  _532
REMARK  215  A    between atoms: _532  and  _533
REMARK  216  A    between atoms: _533  and  _534
REMARK  217  A    between atoms: _537  and  _539
REMARK  218  A    between atoms: _539  and  _540
REMARK  219  A    between atoms: _539  and  _542
REMARK  220  A    between atoms: _542  and  _543
REMARK  221  A    between atoms: _549  and  _551
REMARK  222  A    between atoms: _551  and  _552
REMARK  223  A    between atoms: _554  and  _556
REMARK  224  A    between atoms: _556  and  _557
REMARK  225  A    between atoms: _556  and  _559
REMARK  226  A    between atoms: _559  and  _560
REMARK  227  A    between atoms: _565  and  _566
REMARK  228  A    between atoms: _568  and  _570
REMARK  229  A    between atoms: _570  and  _571
REMARK  230  A    between atoms: _570  and  _573
REMARK  231  A    between atoms: _573  and  _574
REMARK  232  A    between atoms: _579  and  _580
REMARK  233  A    between atoms: _582  and  _584
REMARK  234  A    between atoms: _584  and  _585
REMARK  235  A    between atoms: _588  and  _590
REMARK  236  A    between atoms: _590  and  _591
REMARK  237  A    between atoms: _590  and  _593
REMARK  238  A    between atoms: _593  and  _594
REMARK  239  A    between atoms: _594  and  _595
REMARK  240  A    between atoms: _595  and  _596
REMARK                            x       y       z     vdW  Elec       q    Type
REMARK                         _______ _______ _______ _____ _____    ______ ____
ROOT
ATOM      1  O   HOH     1       9.780 -11.244   8.340  0.00  0.00    +0.000 OA
ENDROOT
TORSDOF 0
REMARK  Name = ../refined-set-2016/4cg8/4cg8_pocket.pdb
REMARK  240 active torsions:
REMARK  status: ('A' for Active; 'I' for Inactive)
REMARK    1  A    between atoms: _1  and  _3
REMARK    2  A    between atoms: _3  and  _4
REMARK    3  A    between atoms: _3  and  _6
REMARK    4  A    between atoms: _6  and  _7
REMARK    5  A    between atoms: _7  and  _8
REMARK    6  A    between atoms: _8  and  _9
REMARK    7  A    between atoms: _18  and  _20
REMARK    8  A    between atoms: _20  and  _21
REMARK    9  A    between atoms: _20  and  _23
REMARK   10  A    between atoms: _23  and  _24
REMARK   11  A    between atoms: _26  and  _28
REMARK   12  A    between atoms: _28  and  _29
REMARK   13  A    between atoms: _28  and  _31
REMARK   14  A    between atoms: _31  and  _32
REMARK   15  A    between atoms: _37  and  _39
REMARK   16  A    between atoms: _39  and  _40
REMARK   17  A    between atoms: _39  and  _42
REMARK   18  A    between atoms: _42  and  _43
REMARK   19  A    between atoms: _46  and  _48
REMARK   20  A    between atoms: _48  and  _49
REMARK   21  A    between atoms: _48  and  _51
REMARK   22  A    between atoms: _51  and  _52
REMARK   23  A    between atoms: _62  and  _64
REMARK   24  A    between atoms: _64  and  _65
REMARK   25  A    between atoms: _64  and  _67
REMARK   26  A    between atoms: _67  and  _68
REMARK   27  A    between atoms: _71  and  _73
REMARK   28  A    between atoms: _73  and  _74
REMARK   29  A    between atoms: _76  and  _78
REMARK   30  A    between atoms: _78  and  _79
REMARK   31  A    between atoms: _78  and  _81
REMARK   32  A    between atoms: _81  and  _82
REMARK   33  A    between atoms: _85  and  _87
REMARK   34  A    between atoms: _87  and  _88
REMARK   35  A    between atoms: _87  and  _90
REMARK   36  A    between atoms: _90  and  _91
REMARK   37  A    between atoms: _91  and  _92
REMARK   38  A    between atoms: _94  and  _96
REMARK   39  A    between atoms: _96  and  _97
REMARK   40  A    between atoms: _96  and  _99
REMARK   41  A    between atoms: _99  and  _100
REMARK   42  A    between atoms: _100  and  _101
REMARK   43  A    between atoms: _104  and  _106
REMARK   44  A    between atoms: _106  and  _107
REMARK   45  A    between atoms: _106  and  _109
REMARK   46  A    between atoms: _109  and  _110
REMARK   47  A    between atoms: _110  and  _111
REMARK   48  A    between atoms: _111  and  _112
REMARK   49  A    between atoms: _112  and  _113
REMARK   50  A    between atoms: _117  and  _119
REMARK   51  A    between atoms: _119  and  _120
REMARK   52  A    between atoms: _119  and  _122
REMARK   53  A    between atoms: _122  and  _123
REMARK   54  A    between atoms: _128  and  _129
REMARK   55  A    between atoms: _131  and  _133
REMARK   56  A    between atoms: _133  and  _134
REMARK   57  A    between atoms: _133  and  _136
REMARK   58  A    between atoms: _136  and  _137
REMARK   59  A    between atoms: _140  and  _142
REMARK   60  A    between atoms: _142  and  _143
REMARK   61  A    between atoms: _142  and  _145
REMARK   62  A    between atoms: _145  and  _146
REMARK   63  A    between atoms: _151  and  _153
REMARK   64  A    between atoms: _153  and  _154
REMARK   65  A    between atoms: _153  and  _156
REMARK   66  A    between atoms: _156  and  _157
REMARK   67  A    between atoms: _162  and  _164
REMARK   68  A    between atoms: _164  and  _165
REMARK   69  A    between atoms: _164  and  _167
REMARK   70  A    between atoms: _167  and  _168
REMARK   71  A    between atoms: _171  and  _173
REMARK   72  A    between atoms: _173  and  _174
REMARK   73  A    between atoms: _173  and  _176
REMARK   74  A    between atoms: _178  and  _180
REMARK   75  A    between atoms: _180  and  _181
REMARK   76  A    between atoms: _180  and  _183
REMARK   77  A    between atoms: _183  and  _184
REMARK   78  A    between atoms: _184  and  _185
REMARK   79  A    between atoms: _190  and  _192
REMARK   80  A    between atoms: _192  and  _193
REMARK   81  A    between atoms: _192  and  _195
REMARK   82  A    between atoms: _195  and  _196
REMARK   83  A    between atoms: _196  and  _197
REMARK   84  A    between atoms: _200  and  _202
REMARK   85  A    between atoms: _202  and  _203
REMARK   86  A    between atoms: _205  and  _207
REMARK   87  A    between atoms: _207  and  _208
REMARK   88  A    between atoms: _207  and  _210
REMARK   89  A    between atoms: _210  and  _211
REMARK   90  A    between atoms: _216  and  _218
REMARK   91  A    between atoms: _218  and  _219
REMARK   92  A    between atoms: _218  and  _221
REMARK   93  A    between atoms: _221  and  _222
REMARK   94  A    between atoms: _225  and  _227
REMARK   95  A    between atoms: _227  and  _228
REMARK   96  A    between atoms: _227  and  _230
REMARK   97  A    between atoms: _230  and  _231
REMARK   98  A    between atoms: _231  and  _232
REMARK   99  A    between atoms: _235  and  _237
REMARK  100  A    between atoms: _237  and  _238
REMARK  101  A    between atoms: _237  and  _240
REMARK  102  A    between atoms: _240  and  _241
REMARK  103  A    between atoms: _246  and  _247
REMARK  104  A    between atoms: _249  and  _251
REMARK  105  A    between atoms: _251  and  _252
REMARK  106  A    between atoms: _251  and  _254
REMARK  107  A    between atoms: _254  and  _255
REMARK  108  A    between atoms: _257  and  _259
REMARK  109  A    between atoms: _259  and  _260
REMARK  110  A    between atoms: _259  and  _262
REMARK  111  A    between atoms: _262  and  _263
REMARK  112  A    between atoms: _268  and  _270
REMARK  113  A    between atoms: _270  and  _271
REMARK  114  A    between atoms: _270  and  _273
REMARK  115  A    between atoms: _273  and  _274
REMARK  116  A    between atoms: _280  and  _282
REMARK  117  A    between atoms: _282  and  _283
REMARK  118  A    between atoms: _282  and  _285
REMARK  119  A    between atoms: _285  and  _286
REMARK  120  A    between atoms: _291  and  _293
REMARK  121  A    between atoms: _293  and  _294
REMARK  122  A    between atoms: _293  and  _296
REMARK  123  A    between atoms: _296  and  _297
REMARK  124  A    between atoms: _297  and  _298
REMARK  125  A    between atoms: _301  and  _303
REMARK  126  A    between atoms: _303  and  _304
REMARK  127  A    between atoms: _303  and  _306
REMARK  128  A    between atoms: _306  and  _307
REMARK  129  A    between atoms: _312  and  _313
REMARK  130  A    between atoms: _315  and  _317
REMARK  131  A    between atoms: _317  and  _318
REMARK  132  A    between atoms: _317  and  _320
REMARK  133  A    between atoms: _320  and  _321
REMARK  134  A    between atoms: _324  and  _326
REMARK  135  A    between atoms: _326  and  _327
REMARK  136  A    between atoms: _326  and  _329
REMARK  137  A    between atoms: _329  and  _330
REMARK  138  A    between atoms: _335  and  _336
REMARK  139  A    between atoms: _338  and  _340
REMARK  140  A    between atoms: _340  and  _341
REMARK  141  A    between atoms: _340  and  _343
REMARK  142  A    between atoms: _343  and  _344
REMARK  143  A    between atoms: _346  and  _348
REMARK  144  A    between atoms: _348  and  _349
REMARK  145  A    between atoms: _348  and  _351
REMARK  146  A    between atoms: _351  and  _352
REMARK  147  A    between atoms: _357  and  _358
REMARK  148  A    between atoms: _360  and  _362
REMARK  149  A    between atoms: _362  and  _363
REMARK  150  A    between atoms: _362  and  _365
REMARK  151  A    between atoms: _365  and  _366
REMARK  152  A    between atoms: _372  and  _374
REMARK  153  A    between atoms: _374  and  _375
REMARK  154  A    between atoms: _374  and  _377
REMARK  155  A    between atoms: _377  and  _378
REMARK  156  A    between atoms: _384  and  _386
REMARK  157  A    between atoms: _386  and  _387
REMARK  158  A    between atoms: _390  and  _392
REMARK  159  A    between atoms: _392  and  _393
REMARK  160  A    between atoms: _392  and  _395
REMARK  161  A    between atoms: _395  and  _396
REMARK  162  A    between atoms: _398  and  _400
REMARK  163  A    between atoms: _400  and  _401
REMARK  164  A    between atoms: _400  and  _403
REMARK  165  A    between atoms: _403  and  _404
REMARK  166  A    between atoms: _410  and  _412
REMARK  167  A    between atoms: _412  and  _413
REMARK  168  A    between atoms: _412  and  _415
REMARK  169  A    between atoms: _415  and  _416
REMARK  170  A    between atoms: _419  and  _421
REMARK  171  A    between atoms: _421  and  _422
REMARK  172  A    between atoms: _421  and  _424
REMARK  173  A    between atoms: _424  and  _425
REMARK  174  A    between atoms: _435  and  _437
REMARK  175  A    between atoms: _437  and  _438
REMARK  176  A    between atoms: _440  and  _442
REMARK  177  A    between atoms: _442  and  _443
REMARK  178  A    between atoms: _442  and  _445
REMARK  179  A    between atoms: _445  and  _446
REMARK  180  A    between atoms: _449  and  _451
REMARK  181  A    between atoms: _451  and  _452
REMARK  182  A    between atoms: _451  and  _454
REMARK  183  A    between atoms: _454  and  _455
REMARK  184  A    between atoms: _465  and  _467
REMARK  185  A    between atoms: _467  and  _468
REMARK  186  A    between atoms: _467  and  _470
REMARK  187  A    between atoms: _470  and  _471
REMARK  188  A    between atoms: _473  and  _475
REMARK  189  A    between atoms: _475  and  _476
REMARK  190  A    between atoms: _475  and  _478
REMARK  191  A    between atoms: _478  and  _479
REMARK  192  A    between atoms: _482  and  _484
REMARK  193  A    between atoms: _484  and  _485
REMARK  194  A    between atoms: _484  and  _487
REMARK  195  A    between atoms: _490  and  _492
REMARK  196  A    between atoms: _492  and  _493
REMARK  197  A    between atoms: _492  and  _495
REMARK  198  A    between atoms: _495  and  _496
REMARK  199  A    between atoms: _496  and  _497
REMARK  200  A    between atoms: _502  and  _504
REMARK  201  A    between atoms: _504  and  _505
REMARK  202  A    between atoms: _504  and  _507
REMARK  203  A    between atoms: _507  and  _508
REMARK  204  A    between atoms: _510  and  _512
REMARK  205  A    between atoms: _512  and  _513
REMARK  206  A    between atoms: _512  and  _515
REMARK  207  A    between atoms: _515  and  _516
REMARK  208  A    between atoms: _518  and  _520
REMARK  209  A    between atoms: _520  and  _521
REMARK  210  A    between atoms: _520  and  _523
REMARK  211  A    between atoms: _523  and  _524
REMARK  212  A    between atoms: _527  and  _529
REMARK  213  A    between atoms: _529  and  _530
REMARK  214  A    between atoms: _529  and  _532
REMARK  215  A    between atoms: _532  and  _533
REMARK  216  A    between atoms: _533  and  _534
REMARK  217  A    between atoms: _537  and  _539
REMARK  218  A    between atoms: _539  and  _540
REMARK  219  A    between atoms: _539  and  _542
REMARK  220  A    between atoms: _542  and  _543
REMARK  221  A    between atoms: _549  and  _551
REMARK  222  A    between atoms: _551  and  _552
REMARK  223  A    between atoms: _554  and  _556
REMARK  224  A    between atoms: _556  and  _557
REMARK  225  A    between atoms: _556  and  _559
REMARK  226  A    between atoms: _559  and  _560
REMARK  227  A    between atoms: _565  and  _566
REMARK  228  A    between atoms: _568  and  _570
REMARK  229  A    between atoms: _570  and  _571
REMARK  230  A    between atoms: _570  and  _573
REMARK  231  A    between atoms: _573  and  _574
REMARK  232  A    between atoms: _579  and  _580
REMARK  233  A    between atoms: _582  and  _584
REMARK  234  A    between atoms: _584  and  _585
REMARK  235  A    between atoms: _588  and  _590
REMARK  236  A    between atoms: _590  and  _591
REMARK  237  A    between atoms: _590  and  _593
REMARK  238  A    between atoms: _593  and  _594
REMARK  239  A    between atoms: _594  and  _595
REMARK  240  A    between atoms: _595  and  _596
REMARK                            x       y       z     vdW  Elec       q    Type
REMARK                         _______ _______ _______ _____ _____    ______ ____
ROOT
ATOM      1  O   HOH     1      27.563 -16.815   5.076  0.00  0.00    +0.000 OA
ENDROOT
TORSDOF 0
REMARK  Name = ../refined-set-2016/4cg8/4cg8_pocket.pdb
REMARK  240 active torsions:
REMARK  status: ('A' for Active; 'I' for Inactive)
REMARK    1  A    between atoms: _1  and  _3
REMARK    2  A    between atoms: _3  and  _4
REMARK    3  A    between atoms: _3  and  _6
REMARK    4  A    between atoms: _6  and  _7
REMARK    5  A    between atoms: _7  and  _8
REMARK    6  A    between atoms: _8  and  _9
REMARK    7  A    between atoms: _18  and  _20
REMARK    8  A    between atoms: _20  and  _21
REMARK    9  A    between atoms: _20  and  _23
REMARK   10  A    between atoms: _23  and  _24
REMARK   11  A    between atoms: _26  and  _28
REMARK   12  A    between atoms: _28  and  _29
REMARK   13  A    between atoms: _28  and  _31
REMARK   14  A    between atoms: _31  and  _32
REMARK   15  A    between atoms: _37  and  _39
REMARK   16  A    between atoms: _39  and  _40
REMARK   17  A    between atoms: _39  and  _42
REMARK   18  A    between atoms: _42  and  _43
REMARK   19  A    between atoms: _46  and  _48
REMARK   20  A    between atoms: _48  and  _49
REMARK   21  A    between atoms: _48  and  _51
REMARK   22  A    between atoms: _51  and  _52
REMARK   23  A    between atoms: _62  and  _64
REMARK   24  A    between atoms: _64  and  _65
REMARK   25  A    between atoms: _64  and  _67
REMARK   26  A    between atoms: _67  and  _68
REMARK   27  A    between atoms: _71  and  _73
REMARK   28  A    between atoms: _73  and  _74
REMARK   29  A    between atoms: _76  and  _78
REMARK   30  A    between atoms: _78  and  _79
REMARK   31  A    between atoms: _78  and  _81
REMARK   32  A    between atoms: _81  and  _82
REMARK   33  A    between atoms: _85  and  _87
REMARK   34  A    between atoms: _87  and  _88
REMARK   35  A    between atoms: _87  and  _90
REMARK   36  A    between atoms: _90  and  _91
REMARK   37  A    between atoms: _91  and  _92
REMARK   38  A    between atoms: _94  and  _96
REMARK   39  A    between atoms: _96  and  _97
REMARK   40  A    between atoms: _96  and  _99
REMARK   41  A    between atoms: _99  and  _100
REMARK   42  A    between atoms: _100  and  _101
REMARK   43  A    between atoms: _104  and  _106
REMARK   44  A    between atoms: _106  and  _107
REMARK   45  A    between atoms: _106  and  _109
REMARK   46  A    between atoms: _109  and  _110
REMARK   47  A    between atoms: _110  and  _111
REMARK   48  A    between atoms: _111  and  _112
REMARK   49  A    between atoms: _112  and  _113
REMARK   50  A    between atoms: _117  and  _119
REMARK   51  A    between atoms: _119  and  _120
REMARK   52  A    between atoms: _119  and  _122
REMARK   53  A    between atoms: _122  and  _123
REMARK   54  A    between atoms: _128  and  _129
REMARK   55  A    between atoms: _131  and  _133
REMARK   56  A    between atoms: _133  and  _134
REMARK   57  A    between atoms: _133  and  _136
REMARK   58  A    between atoms: _136  and  _137
REMARK   59  A    between atoms: _140  and  _142
REMARK   60  A    between atoms: _142  and  _143
REMARK   61  A    between atoms: _142  and  _145
REMARK   62  A    between atoms: _145  and  _146
REMARK   63  A    between atoms: _151  and  _153
REMARK   64  A    between atoms: _153  and  _154
REMARK   65  A    between atoms: _153  and  _156
REMARK   66  A    between atoms: _156  and  _157
REMARK   67  A    between atoms: _162  and  _164
REMARK   68  A    between atoms: _164  and  _165
REMARK   69  A    between atoms: _164  and  _167
REMARK   70  A    between atoms: _167  and  _168
REMARK   71  A    between atoms: _171  and  _173
REMARK   72  A    between atoms: _173  and  _174
REMARK   73  A    between atoms: _173  and  _176
REMARK   74  A    between atoms: _178  and  _180
REMARK   75  A    between atoms: _180  and  _181
REMARK   76  A    between atoms: _180  and  _183
REMARK   77  A    between atoms: _183  and  _184
REMARK   78  A    between atoms: _184  and  _185
REMARK   79  A    between atoms: _190  and  _192
REMARK   80  A    between atoms: _192  and  _193
REMARK   81  A    between atoms: _192  and  _195
REMARK   82  A    between atoms: _195  and  _196
REMARK   83  A    between atoms: _196  and  _197
REMARK   84  A    between atoms: _200  and  _202
REMARK   85  A    between atoms: _202  and  _203
REMARK   86  A    between atoms: _205  and  _207
REMARK   87  A    between atoms: _207  and  _208
REMARK   88  A    between atoms: _207  and  _210
REMARK   89  A    between atoms: _210  and  _211
REMARK   90  A    between atoms: _216  and  _218
REMARK   91  A    between atoms: _218  and  _219
REMARK   92  A    between atoms: _218  and  _221
REMARK   93  A    between atoms: _221  and  _222
REMARK   94  A    between atoms: _225  and  _227
REMARK   95  A    between atoms: _227  and  _228
REMARK   96  A    between atoms: _227  and  _230
REMARK   97  A    between atoms: _230  and  _231
REMARK   98  A    between atoms: _231  and  _232
REMARK   99  A    between atoms: _235  and  _237
REMARK  100  A    between atoms: _237  and  _238
REMARK  101  A    between atoms: _237  and  _240
REMARK  102  A    between atoms: _240  and  _241
REMARK  103  A    between atoms: _246  and  _247
REMARK  104  A    between atoms: _249  and  _251
REMARK  105  A    between atoms: _251  and  _252
REMARK  106  A    between atoms: _251  and  _254
REMARK  107  A    between atoms: _254  and  _255
REMARK  108  A    between atoms: _257  and  _259
REMARK  109  A    between atoms: _259  and  _260
REMARK  110  A    between atoms: _259  and  _262
REMARK  111  A    between atoms: _262  and  _263
REMARK  112  A    between atoms: _268  and  _270
REMARK  113  A    between atoms: _270  and  _271
REMARK  114  A    between atoms: _270  and  _273
REMARK  115  A    between atoms: _273  and  _274
REMARK  116  A    between atoms: _280  and  _282
REMARK  117  A    between atoms: _282  and  _283
REMARK  118  A    between atoms: _282  and  _285
REMARK  119  A    between atoms: _285  and  _286
REMARK  120  A    between atoms: _291  and  _293
REMARK  121  A    between atoms: _293  and  _294
REMARK  122  A    between atoms: _293  and  _296
REMARK  123  A    between atoms: _296  and  _297
REMARK  124  A    between atoms: _297  and  _298
REMARK  125  A    between atoms: _301  and  _303
REMARK  126  A    between atoms: _303  and  _304
REMARK  127  A    between atoms: _303  and  _306
REMARK  128  A    between atoms: _306  and  _307
REMARK  129  A    between atoms: _312  and  _313
REMARK  130  A    between atoms: _315  and  _317
REMARK  131  A    between atoms: _317  and  _318
REMARK  132  A    between atoms: _317  and  _320
REMARK  133  A    between atoms: _320  and  _321
REMARK  134  A    between atoms: _324  and  _326
REMARK  135  A    between atoms: _326  and  _327
REMARK  136  A    between atoms: _326  and  _329
REMARK  137  A    between atoms: _329  and  _330
REMARK  138  A    between atoms: _335  and  _336
REMARK  139  A    between atoms: _338  and  _340
REMARK  140  A    between atoms: _340  and  _341
REMARK  141  A    between atoms: _340  and  _343
REMARK  142  A    between atoms: _343  and  _344
REMARK  143  A    between atoms: _346  and  _348
REMARK  144  A    between atoms: _348  and  _349
REMARK  145  A    between atoms: _348  and  _351
REMARK  146  A    between atoms: _351  and  _352
REMARK  147  A    between atoms: _357  and  _358
REMARK  148  A    between atoms: _360  and  _362
REMARK  149  A    between atoms: _362  and  _363
REMARK  150  A    between atoms: _362  and  _365
REMARK  151  A    between atoms: _365  and  _366
REMARK  152  A    between atoms: _372  and  _374
REMARK  153  A    between atoms: _374  and  _375
REMARK  154  A    between atoms: _374  and  _377
REMARK  155  A    between atoms: _377  and  _378
REMARK  156  A    between atoms: _384  and  _386
REMARK  157  A    between atoms: _386  and  _387
REMARK  158  A    between atoms: _390  and  _392
REMARK  159  A    between atoms: _392  and  _393
REMARK  160  A    between atoms: _392  and  _395
REMARK  161  A    between atoms: _395  and  _396
REMARK  162  A    between atoms: _398  and  _400
REMARK  163  A    between atoms: _400  and  _401
REMARK  164  A    between atoms: _400  and  _403
REMARK  165  A    between atoms: _403  and  _404
REMARK  166  A    between atoms: _410  and  _412
REMARK  167  A    between atoms: _412  and  _413
REMARK  168  A    between atoms: _412  and  _415
REMARK  169  A    between atoms: _415  and  _416
REMARK  170  A    between atoms: _419  and  _421
REMARK  171  A    between atoms: _421  and  _422
REMARK  172  A    between atoms: _421  and  _424
REMARK  173  A    between atoms: _424  and  _425
REMARK  174  A    between atoms: _435  and  _437
REMARK  175  A    between atoms: _437  and  _438
REMARK  176  A    between atoms: _440  and  _442
REMARK  177  A    between atoms: _442  and  _443
REMARK  178  A    between atoms: _442  and  _445
REMARK  179  A    between atoms: _445  and  _446
REMARK  180  A    between atoms: _449  and  _451
REMARK  181  A    between atoms: _451  and  _452
REMARK  182  A    between atoms: _451  and  _454
REMARK  183  A    between atoms: _454  and  _455
REMARK  184  A    between atoms: _465  and  _467
REMARK  185  A    between atoms: _467  and  _468
REMARK  186  A    between atoms: _467  and  _470
REMARK  187  A    between atoms: _470  and  _471
REMARK  188  A    between atoms: _473  and  _475
REMARK  189  A    between atoms: _475  and  _476
REMARK  190  A    between atoms: _475  and  _478
REMARK  191  A    between atoms: _478  and  _479
REMARK  192  A    between atoms: _482  and  _484
REMARK  193  A    between atoms: _484  and  _485
REMARK  194  A    between atoms: _484  and  _487
REMARK  195  A    between atoms: _490  and  _492
REMARK  196  A    between atoms: _492  and  _493
REMARK  197  A    between atoms: _492  and  _495
REMARK  198  A    between atoms: _495  and  _496
REMARK  199  A    between atoms: _496  and  _497
REMARK  200  A    between atoms: _502  and  _504
REMARK  201  A    between atoms: _504  and  _505
REMARK  202  A    between atoms: _504  and  _507
REMARK  203  A    between atoms: _507  and  _508
REMARK  204  A    between atoms: _510  and  _512
REMARK  205  A    between atoms: _512  and  _513
REMARK  206  A    between atoms: _512  and  _515
REMARK  207  A    between atoms: _515  and  _516
REMARK  208  A    between atoms: _518  and  _520
REMARK  209  A    between atoms: _520  and  _521
REMARK  210  A    between atoms: _520  and  _523
REMARK  211  A    between atoms: _523  and  _524
REMARK  212  A    between atoms: _527  and  _529
REMARK  213  A    between atoms: _529  and  _530
REMARK  214  A    between atoms: _529  and  _532
REMARK  215  A    between atoms: _532  and  _533
REMARK  216  A    between atoms: _533  and  _534
REMARK  217  A    between atoms: _537  and  _539
REMARK  218  A    between atoms: _539  and  _540
REMARK  219  A    between atoms: _539  and  _542
REMARK  220  A    between atoms: _542  and  _543
REMARK  221  A    between atoms: _549  and  _551
REMARK  222  A    between atoms: _551  and  _552
REMARK  223  A    between atoms: _554  and  _556
REMARK  224  A    between atoms: _556  and  _557
REMARK  225  A    between atoms: _556  and  _559
REMARK  226  A    between atoms: _559  and  _560
REMARK  227  A    between atoms: _565  and  _566
REMARK  228  A    between atoms: _568  and  _570
REMARK  229  A    between atoms: _570  and  _571
REMARK  230  A    between atoms: _570  and  _573
REMARK  231  A    between atoms: _573  and  _574
REMARK  232  A    between atoms: _579  and  _580
REMARK  233  A    between atoms: _582  and  _584
REMARK  234  A    between atoms: _584  and  _585
REMARK  235  A    between atoms: _588  and  _590
REMARK  236  A    between atoms: _590  and  _591
REMARK  237  A    between atoms: _590  and  _593
REMARK  238  A    between atoms: _593  and  _594
REMARK  239  A    between atoms: _594  and  _595
REMARK  240  A    between atoms: _595  and  _596
REMARK                            x       y       z     vdW  Elec       q    Type
REMARK                         _______ _______ _______ _____ _____    ______ ____
ROOT
ATOM      1  O   HOH     1      25.867 -10.542   7.077  0.00  0.00    +0.000 OA
ENDROOT
TORSDOF 0
REMARK  Name = ../refined-set-2016/4cg8/4cg8_pocket.pdb
REMARK  240 active torsions:
REMARK  status: ('A' for Active; 'I' for Inactive)
REMARK    1  A    between atoms: _1  and  _3
REMARK    2  A    between atoms: _3  and  _4
REMARK    3  A    between atoms: _3  and  _6
REMARK    4  A    between atoms: _6  and  _7
REMARK    5  A    between atoms: _7  and  _8
REMARK    6  A    between atoms: _8  and  _9
REMARK    7  A    between atoms: _18  and  _20
REMARK    8  A    between atoms: _20  and  _21
REMARK    9  A    between atoms: _20  and  _23
REMARK   10  A    between atoms: _23  and  _24
REMARK   11  A    between atoms: _26  and  _28
REMARK   12  A    between atoms: _28  and  _29
REMARK   13  A    between atoms: _28  and  _31
REMARK   14  A    between atoms: _31  and  _32
REMARK   15  A    between atoms: _37  and  _39
REMARK   16  A    between atoms: _39  and  _40
REMARK   17  A    between atoms: _39  and  _42
REMARK   18  A    between atoms: _42  and  _43
REMARK   19  A    between atoms: _46  and  _48
REMARK   20  A    between atoms: _48  and  _49
REMARK   21  A    between atoms: _48  and  _51
REMARK   22  A    between atoms: _51  and  _52
REMARK   23  A    between atoms: _62  and  _64
REMARK   24  A    between atoms: _64  and  _65
REMARK   25  A    between atoms: _64  and  _67
REMARK   26  A    between atoms: _67  and  _68
REMARK   27  A    between atoms: _71  and  _73
REMARK   28  A    between atoms: _73  and  _74
REMARK   29  A    between atoms: _76  and  _78
REMARK   30  A    between atoms: _78  and  _79
REMARK   31  A    between atoms: _78  and  _81
REMARK   32  A    between atoms: _81  and  _82
REMARK   33  A    between atoms: _85  and  _87
REMARK   34  A    between atoms: _87  and  _88
REMARK   35  A    between atoms: _87  and  _90
REMARK   36  A    between atoms: _90  and  _91
REMARK   37  A    between atoms: _91  and  _92
REMARK   38  A    between atoms: _94  and  _96
REMARK   39  A    between atoms: _96  and  _97
REMARK   40  A    between atoms: _96  and  _99
REMARK   41  A    between atoms: _99  and  _100
REMARK   42  A    between atoms: _100  and  _101
REMARK   43  A    between atoms: _104  and  _106
REMARK   44  A    between atoms: _106  and  _107
REMARK   45  A    between atoms: _106  and  _109
REMARK   46  A    between atoms: _109  and  _110
REMARK   47  A    between atoms: _110  and  _111
REMARK   48  A    between atoms: _111  and  _112
REMARK   49  A    between atoms: _112  and  _113
REMARK   50  A    between atoms: _117  and  _119
REMARK   51  A    between atoms: _119  and  _120
REMARK   52  A    between atoms: _119  and  _122
REMARK   53  A    between atoms: _122  and  _123
REMARK   54  A    between atoms: _128  and  _129
REMARK   55  A    between atoms: _131  and  _133
REMARK   56  A    between atoms: _133  and  _134
REMARK   57  A    between atoms: _133  and  _136
REMARK   58  A    between atoms: _136  and  _137
REMARK   59  A    between atoms: _140  and  _142
REMARK   60  A    between atoms: _142  and  _143
REMARK   61  A    between atoms: _142  and  _145
REMARK   62  A    between atoms: _145  and  _146
REMARK   63  A    between atoms: _151  and  _153
REMARK   64  A    between atoms: _153  and  _154
REMARK   65  A    between atoms: _153  and  _156
REMARK   66  A    between atoms: _156  and  _157
REMARK   67  A    between atoms: _162  and  _164
REMARK   68  A    between atoms: _164  and  _165
REMARK   69  A    between atoms: _164  and  _167
REMARK   70  A    between atoms: _167  and  _168
REMARK   71  A    between atoms: _171  and  _173
REMARK   72  A    between atoms: _173  and  _174
REMARK   73  A    between atoms: _173  and  _176
REMARK   74  A    between atoms: _178  and  _180
REMARK   75  A    between atoms: _180  and  _181
REMARK   76  A    between atoms: _180  and  _183
REMARK   77  A    between atoms: _183  and  _184
REMARK   78  A    between atoms: _184  and  _185
REMARK   79  A    between atoms: _190  and  _192
REMARK   80  A    between atoms: _192  and  _193
REMARK   81  A    between atoms: _192  and  _195
REMARK   82  A    between atoms: _195  and  _196
REMARK   83  A    between atoms: _196  and  _197
REMARK   84  A    between atoms: _200  and  _202
REMARK   85  A    between atoms: _202  and  _203
REMARK   86  A    between atoms: _205  and  _207
REMARK   87  A    between atoms: _207  and  _208
REMARK   88  A    between atoms: _207  and  _210
REMARK   89  A    between atoms: _210  and  _211
REMARK   90  A    between atoms: _216  and  _218
REMARK   91  A    between atoms: _218  and  _219
REMARK   92  A    between atoms: _218  and  _221
REMARK   93  A    between atoms: _221  and  _222
REMARK   94  A    between atoms: _225  and  _227
REMARK   95  A    between atoms: _227  and  _228
REMARK   96  A    between atoms: _227  and  _230
REMARK   97  A    between atoms: _230  and  _231
REMARK   98  A    between atoms: _231  and  _232
REMARK   99  A    between atoms: _235  and  _237
REMARK  100  A    between atoms: _237  and  _238
REMARK  101  A    between atoms: _237  and  _240
REMARK  102  A    between atoms: _240  and  _241
REMARK  103  A    between atoms: _246  and  _247
REMARK  104  A    between atoms: _249  and  _251
REMARK  105  A    between atoms: _251  and  _252
REMARK  106  A    between atoms: _251  and  _254
REMARK  107  A    between atoms: _254  and  _255
REMARK  108  A    between atoms: _257  and  _259
REMARK  109  A    between atoms: _259  and  _260
REMARK  110  A    between atoms: _259  and  _262
REMARK  111  A    between atoms: _262  and  _263
REMARK  112  A    between atoms: _268  and  _270
REMARK  113  A    between atoms: _270  and  _271
REMARK  114  A    between atoms: _270  and  _273
REMARK  115  A    between atoms: _273  and  _274
REMARK  116  A    between atoms: _280  and  _282
REMARK  117  A    between atoms: _282  and  _283
REMARK  118  A    between atoms: _282  and  _285
REMARK  119  A    between atoms: _285  and  _286
REMARK  120  A    between atoms: _291  and  _293
REMARK  121  A    between atoms: _293  and  _294
REMARK  122  A    between atoms: _293  and  _296
REMARK  123  A    between atoms: _296  and  _297
REMARK  124  A    between atoms: _297  and  _298
REMARK  125  A    between atoms: _301  and  _303
REMARK  126  A    between atoms: _303  and  _304
REMARK  127  A    between atoms: _303  and  _306
REMARK  128  A    between atoms: _306  and  _307
REMARK  129  A    between atoms: _312  and  _313
REMARK  130  A    between atoms: _315  and  _317
REMARK  131  A    between atoms: _317  and  _318
REMARK  132  A    between atoms: _317  and  _320
REMARK  133  A    between atoms: _320  and  _321
REMARK  134  A    between atoms: _324  and  _326
REMARK  135  A    between atoms: _326  and  _327
REMARK  136  A    between atoms: _326  and  _329
REMARK  137  A    between atoms: _329  and  _330
REMARK  138  A    between atoms: _335  and  _336
REMARK  139  A    between atoms: _338  and  _340
REMARK  140  A    between atoms: _340  and  _341
REMARK  141  A    between atoms: _340  and  _343
REMARK  142  A    between atoms: _343  and  _344
REMARK  143  A    between atoms: _346  and  _348
REMARK  144  A    between atoms: _348  and  _349
REMARK  145  A    between atoms: _348  and  _351
REMARK  146  A    between atoms: _351  and  _352
REMARK  147  A    between atoms: _357  and  _358
REMARK  148  A    between atoms: _360  and  _362
REMARK  149  A    between atoms: _362  and  _363
REMARK  150  A    between atoms: _362  and  _365
REMARK  151  A    between atoms: _365  and  _366
REMARK  152  A    between atoms: _372  and  _374
REMARK  153  A    between atoms: _374  and  _375
REMARK  154  A    between atoms: _374  and  _377
REMARK  155  A    between atoms: _377  and  _378
REMARK  156  A    between atoms: _384  and  _386
REMARK  157  A    between atoms: _386  and  _387
REMARK  158  A    between atoms: _390  and  _392
REMARK  159  A    between atoms: _392  and  _393
REMARK  160  A    between atoms: _392  and  _395
REMARK  161  A    between atoms: _395  and  _396
REMARK  162  A    between atoms: _398  and  _400
REMARK  163  A    between atoms: _400  and  _401
REMARK  164  A    between atoms: _400  and  _403
REMARK  165  A    between atoms: _403  and  _404
REMARK  166  A    between atoms: _410  and  _412
REMARK  167  A    between atoms: _412  and  _413
REMARK  168  A    between atoms: _412  and  _415
REMARK  169  A    between atoms: _415  and  _416
REMARK  170  A    between atoms: _419  and  _421
REMARK  171  A    between atoms: _421  and  _422
REMARK  172  A    between atoms: _421  and  _424
REMARK  173  A    between atoms: _424  and  _425
REMARK  174  A    between atoms: _435  and  _437
REMARK  175  A    between atoms: _437  and  _438
REMARK  176  A    between atoms: _440  and  _442
REMARK  177  A    between atoms: _442  and  _443
REMARK  178  A    between atoms: _442  and  _445
REMARK  179  A    between atoms: _445  and  _446
REMARK  180  A    between atoms: _449  and  _451
REMARK  181  A    between atoms: _451  and  _452
REMARK  182  A    between atoms: _451  and  _454
REMARK  183  A    between atoms: _454  and  _455
REMARK  184  A    between atoms: _465  and  _467
REMARK  185  A    between atoms: _467  and  _468
REMARK  186  A    between atoms: _467  and  _470
REMARK  187  A    between atoms: _470  and  _471
REMARK  188  A    between atoms: _473  and  _475
REMARK  189  A    between atoms: _475  and  _476
REMARK  190  A    between atoms: _475  and  _478
REMARK  191  A    between atoms: _478  and  _479
REMARK  192  A    between atoms: _482  and  _484
REMARK  193  A    between atoms: _484  and  _485
REMARK  194  A    between atoms: _484  and  _487
REMARK  195  A    between atoms: _490  and  _492
REMARK  196  A    between atoms: _492  and  _493
REMARK  197  A    between atoms: _492  and  _495
REMARK  198  A    between atoms: _495  and  _496
REMARK  199  A    between atoms: _496  and  _497
REMARK  200  A    between atoms: _502  and  _504
REMARK  201  A    between atoms: _504  and  _505
REMARK  202  A    between atoms: _504  and  _507
REMARK  203  A    between atoms: _507  and  _508
REMARK  204  A    between atoms: _510  and  _512
REMARK  205  A    between atoms: _512  and  _513
REMARK  206  A    between atoms: _512  and  _515
REMARK  207  A    between atoms: _515  and  _516
REMARK  208  A    between atoms: _518  and  _520
REMARK  209  A    between atoms: _520  and  _521
REMARK  210  A    between atoms: _520  and  _523
REMARK  211  A    between atoms: _523  and  _524
REMARK  212  A    between atoms: _527  and  _529
REMARK  213  A    between atoms: _529  and  _530
REMARK  214  A    between atoms: _529  and  _532
REMARK  215  A    between atoms: _532  and  _533
REMARK  216  A    between atoms: _533  and  _534
REMARK  217  A    between atoms: _537  and  _539
REMARK  218  A    between atoms: _539  and  _540
REMARK  219  A    between atoms: _539  and  _542
REMARK  220  A    between atoms: _542  and  _543
REMARK  221  A    between atoms: _549  and  _551
REMARK  222  A    between atoms: _551  and  _552
REMARK  223  A    between atoms: _554  and  _556
REMARK  224  A    between atoms: _556  and  _557
REMARK  225  A    between atoms: _556  and  _559
REMARK  226  A    between atoms: _559  and  _560
REMARK  227  A    between atoms: _565  and  _566
REMARK  228  A    between atoms: _568  and  _570
REMARK  229  A    between atoms: _570  and  _571
REMARK  230  A    between atoms: _570  and  _573
REMARK  231  A    between atoms: _573  and  _574
REMARK  232  A    between atoms: _579  and  _580
REMARK  233  A    between atoms: _582  and  _584
REMARK  234  A    between atoms: _584  and  _585
REMARK  235  A    between atoms: _588  and  _590
REMARK  236  A    between atoms: _590  and  _591
REMARK  237  A    between atoms: _590  and  _593
REMARK  238  A    between atoms: _593  and  _594
REMARK  239  A    between atoms: _594  and  _595
REMARK  240  A    between atoms: _595  and  _596
REMARK                            x       y       z     vdW  Elec       q    Type
REMARK                         _______ _______ _______ _____ _____    ______ ____
ROOT
ATOM      1  O   HOH     1      14.498 -12.148  13.132  0.00  0.00    +0.000 OA
ENDROOT
TORSDOF 0
REMARK  Name = ../refined-set-2016/4cg8/4cg8_pocket.pdb
REMARK  240 active torsions:
REMARK  status: ('A' for Active; 'I' for Inactive)
REMARK    1  A    between atoms: _1  and  _3
REMARK    2  A    between atoms: _3  and  _4
REMARK    3  A    between atoms: _3  and  _6
REMARK    4  A    between atoms: _6  and  _7
REMARK    5  A    between atoms: _7  and  _8
REMARK    6  A    between atoms: _8  and  _9
REMARK    7  A    between atoms: _18  and  _20
REMARK    8  A    between atoms: _20  and  _21
REMARK    9  A    between atoms: _20  and  _23
REMARK   10  A    between atoms: _23  and  _24
REMARK   11  A    between atoms: _26  and  _28
REMARK   12  A    between atoms: _28  and  _29
REMARK   13  A    between atoms: _28  and  _31
REMARK   14  A    between atoms: _31  and  _32
REMARK   15  A    between atoms: _37  and  _39
REMARK   16  A    between atoms: _39  and  _40
REMARK   17  A    between atoms: _39  and  _42
REMARK   18  A    between atoms: _42  and  _43
REMARK   19  A    between atoms: _46  and  _48
REMARK   20  A    between atoms: _48  and  _49
REMARK   21  A    between atoms: _48  and  _51
REMARK   22  A    between atoms: _51  and  _52
REMARK   23  A    between atoms: _62  and  _64
REMARK   24  A    between atoms: _64  and  _65
REMARK   25  A    between atoms: _64  and  _67
REMARK   26  A    between atoms: _67  and  _68
REMARK   27  A    between atoms: _71  and  _73
REMARK   28  A    between atoms: _73  and  _74
REMARK   29  A    between atoms: _76  and  _78
REMARK   30  A    between atoms: _78  and  _79
REMARK   31  A    between atoms: _78  and  _81
REMARK   32  A    between atoms: _81  and  _82
REMARK   33  A    between atoms: _85  and  _87
REMARK   34  A    between atoms: _87  and  _88
REMARK   35  A    between atoms: _87  and  _90
REMARK   36  A    between atoms: _90  and  _91
REMARK   37  A    between atoms: _91  and  _92
REMARK   38  A    between atoms: _94  and  _96
REMARK   39  A    between atoms: _96  and  _97
REMARK   40  A    between atoms: _96  and  _99
REMARK   41  A    between atoms: _99  and  _100
REMARK   42  A    between atoms: _100  and  _101
REMARK   43  A    between atoms: _104  and  _106
REMARK   44  A    between atoms: _106  and  _107
REMARK   45  A    between atoms: _106  and  _109
REMARK   46  A    between atoms: _109  and  _110
REMARK   47  A    between atoms: _110  and  _111
REMARK   48  A    between atoms: _111  and  _112
REMARK   49  A    between atoms: _112  and  _113
REMARK   50  A    between atoms: _117  and  _119
REMARK   51  A    between atoms: _119  and  _120
REMARK   52  A    between atoms: _119  and  _122
REMARK   53  A    between atoms: _122  and  _123
REMARK   54  A    between atoms: _128  and  _129
REMARK   55  A    between atoms: _131  and  _133
REMARK   56  A    between atoms: _133  and  _134
REMARK   57  A    between atoms: _133  and  _136
REMARK   58  A    between atoms: _136  and  _137
REMARK   59  A    between atoms: _140  and  _142
REMARK   60  A    between atoms: _142  and  _143
REMARK   61  A    between atoms: _142  and  _145
REMARK   62  A    between atoms: _145  and  _146
REMARK   63  A    between atoms: _151  and  _153
REMARK   64  A    between atoms: _153  and  _154
REMARK   65  A    between atoms: _153  and  _156
REMARK   66  A    between atoms: _156  and  _157
REMARK   67  A    between atoms: _162  and  _164
REMARK   68  A    between atoms: _164  and  _165
REMARK   69  A    between atoms: _164  and  _167
REMARK   70  A    between atoms: _167  and  _168
REMARK   71  A    between atoms: _171  and  _173
REMARK   72  A    between atoms: _173  and  _174
REMARK   73  A    between atoms: _173  and  _176
REMARK   74  A    between atoms: _178  and  _180
REMARK   75  A    between atoms: _180  and  _181
REMARK   76  A    between atoms: _180  and  _183
REMARK   77  A    between atoms: _183  and  _184
REMARK   78  A    between atoms: _184  and  _185
REMARK   79  A    between atoms: _190  and  _192
REMARK   80  A    between atoms: _192  and  _193
REMARK   81  A    between atoms: _192  and  _195
REMARK   82  A    between atoms: _195  and  _196
REMARK   83  A    between atoms: _196  and  _197
REMARK   84  A    between atoms: _200  and  _202
REMARK   85  A    between atoms: _202  and  _203
REMARK   86  A    between atoms: _205  and  _207
REMARK   87  A    between atoms: _207  and  _208
REMARK   88  A    between atoms: _207  and  _210
REMARK   89  A    between atoms: _210  and  _211
REMARK   90  A    between atoms: _216  and  _218
REMARK   91  A    between atoms: _218  and  _219
REMARK   92  A    between atoms: _218  and  _221
REMARK   93  A    between atoms: _221  and  _222
REMARK   94  A    between atoms: _225  and  _227
REMARK   95  A    between atoms: _227  and  _228
REMARK   96  A    between atoms: _227  and  _230
REMARK   97  A    between atoms: _230  and  _231
REMARK   98  A    between atoms: _231  and  _232
REMARK   99  A    between atoms: _235  and  _237
REMARK  100  A    between atoms: _237  and  _238
REMARK  101  A    between atoms: _237  and  _240
REMARK  102  A    between atoms: _240  and  _241
REMARK  103  A    between atoms: _246  and  _247
REMARK  104  A    between atoms: _249  and  _251
REMARK  105  A    between atoms: _251  and  _252
REMARK  106  A    between atoms: _251  and  _254
REMARK  107  A    between atoms: _254  and  _255
REMARK  108  A    between atoms: _257  and  _259
REMARK  109  A    between atoms: _259  and  _260
REMARK  110  A    between atoms: _259  and  _262
REMARK  111  A    between atoms: _262  and  _263
REMARK  112  A    between atoms: _268  and  _270
REMARK  113  A    between atoms: _270  and  _271
REMARK  114  A    between atoms: _270  and  _273
REMARK  115  A    between atoms: _273  and  _274
REMARK  116  A    between atoms: _280  and  _282
REMARK  117  A    between atoms: _282  and  _283
REMARK  118  A    between atoms: _282  and  _285
REMARK  119  A    between atoms: _285  and  _286
REMARK  120  A    between atoms: _291  and  _293
REMARK  121  A    between atoms: _293  and  _294
REMARK  122  A    between atoms: _293  and  _296
REMARK  123  A    between atoms: _296  and  _297
REMARK  124  A    between atoms: _297  and  _298
REMARK  125  A    between atoms: _301  and  _303
REMARK  126  A    between atoms: _303  and  _304
REMARK  127  A    between atoms: _303  and  _306
REMARK  128  A    between atoms: _306  and  _307
REMARK  129  A    between atoms: _312  and  _313
REMARK  130  A    between atoms: _315  and  _317
REMARK  131  A    between atoms: _317  and  _318
REMARK  132  A    between atoms: _317  and  _320
REMARK  133  A    between atoms: _320  and  _321
REMARK  134  A    between atoms: _324  and  _326
REMARK  135  A    between atoms: _326  and  _327
REMARK  136  A    between atoms: _326  and  _329
REMARK  137  A    between atoms: _329  and  _330
REMARK  138  A    between atoms: _335  and  _336
REMARK  139  A    between atoms: _338  and  _340
REMARK  140  A    between atoms: _340  and  _341
REMARK  141  A    between atoms: _340  and  _343
REMARK  142  A    between atoms: _343  and  _344
REMARK  143  A    between atoms: _346  and  _348
REMARK  144  A    between atoms: _348  and  _349
REMARK  145  A    between atoms: _348  and  _351
REMARK  146  A    between atoms: _351  and  _352
REMARK  147  A    between atoms: _357  and  _358
REMARK  148  A    between atoms: _360  and  _362
REMARK  149  A    between atoms: _362  and  _363
REMARK  150  A    between atoms: _362  and  _365
REMARK  151  A    between atoms: _365  and  _366
REMARK  152  A    between atoms: _372  and  _374
REMARK  153  A    between atoms: _374  and  _375
REMARK  154  A    between atoms: _374  and  _377
REMARK  155  A    between atoms: _377  and  _378
REMARK  156  A    between atoms: _384  and  _386
REMARK  157  A    between atoms: _386  and  _387
REMARK  158  A    between atoms: _390  and  _392
REMARK  159  A    between atoms: _392  and  _393
REMARK  160  A    between atoms: _392  and  _395
REMARK  161  A    between atoms: _395  and  _396
REMARK  162  A    between atoms: _398  and  _400
REMARK  163  A    between atoms: _400  and  _401
REMARK  164  A    between atoms: _400  and  _403
REMARK  165  A    between atoms: _403  and  _404
REMARK  166  A    between atoms: _410  and  _412
REMARK  167  A    between atoms: _412  and  _413
REMARK  168  A    between atoms: _412  and  _415
REMARK  169  A    between atoms: _415  and  _416
REMARK  170  A    between atoms: _419  and  _421
REMARK  171  A    between atoms: _421  and  _422
REMARK  172  A    between atoms: _421  and  _424
REMARK  173  A    between atoms: _424  and  _425
REMARK  174  A    between atoms: _435  and  _437
REMARK  175  A    between atoms: _437  and  _438
REMARK  176  A    between atoms: _440  and  _442
REMARK  177  A    between atoms: _442  and  _443
REMARK  178  A    between atoms: _442  and  _445
REMARK  179  A    between atoms: _445  and  _446
REMARK  180  A    between atoms: _449  and  _451
REMARK  181  A    between atoms: _451  and  _452
REMARK  182  A    between atoms: _451  and  _454
REMARK  183  A    between atoms: _454  and  _455
REMARK  184  A    between atoms: _465  and  _467
REMARK  185  A    between atoms: _467  and  _468
REMARK  186  A    between atoms: _467  and  _470
REMARK  187  A    between atoms: _470  and  _471
REMARK  188  A    between atoms: _473  and  _475
REMARK  189  A    between atoms: _475  and  _476
REMARK  190  A    between atoms: _475  and  _478
REMARK  191  A    between atoms: _478  and  _479
REMARK  192  A    between atoms: _482  and  _484
REMARK  193  A    between atoms: _484  and  _485
REMARK  194  A    between atoms: _484  and  _487
REMARK  195  A    between atoms: _490  and  _492
REMARK  196  A    between atoms: _492  and  _493
REMARK  197  A    between atoms: _492  and  _495
REMARK  198  A    between atoms: _495  and  _496
REMARK  199  A    between atoms: _496  and  _497
REMARK  200  A    between atoms: _502  and  _504
REMARK  201  A    between atoms: _504  and  _505
REMARK  202  A    between atoms: _504  and  _507
REMARK  203  A    between atoms: _507  and  _508
REMARK  204  A    between atoms: _510  and  _512
REMARK  205  A    between atoms: _512  and  _513
REMARK  206  A    between atoms: _512  and  _515
REMARK  207  A    between atoms: _515  and  _516
REMARK  208  A    between atoms: _518  and  _520
REMARK  209  A    between atoms: _520  and  _521
REMARK  210  A    between atoms: _520  and  _523
REMARK  211  A    between atoms: _523  and  _524
REMARK  212  A    between atoms: _527  and  _529
REMARK  213  A    between atoms: _529  and  _530
REMARK  214  A    between atoms: _529  and  _532
REMARK  215  A    between atoms: _532  and  _533
REMARK  216  A    between atoms: _533  and  _534
REMARK  217  A    between atoms: _537  and  _539
REMARK  218  A    between atoms: _539  and  _540
REMARK  219  A    between atoms: _539  and  _542
REMARK  220  A    between atoms: _542  and  _543
REMARK  221  A    between atoms: _549  and  _551
REMARK  222  A    between atoms: _551  and  _552
REMARK  223  A    between atoms: _554  and  _556
REMARK  224  A    between atoms: _556  and  _557
REMARK  225  A    between atoms: _556  and  _559
REMARK  226  A    between atoms: _559  and  _560
REMARK  227  A    between atoms: _565  and  _566
REMARK  228  A    between atoms: _568  and  _570
REMARK  229  A    between atoms: _570  and  _571
REMARK  230  A    between atoms: _570  and  _573
REMARK  231  A    between atoms: _573  and  _574
REMARK  232  A    between atoms: _579  and  _580
REMARK  233  A    between atoms: _582  and  _584
REMARK  234  A    between atoms: _584  and  _585
REMARK  235  A    between atoms: _588  and  _590
REMARK  236  A    between atoms: _590  and  _591
REMARK  237  A    between atoms: _590  and  _593
REMARK  238  A    between atoms: _593  and  _594
REMARK  239  A    between atoms: _594  and  _595
REMARK  240  A    between atoms: _595  and  _596
REMARK                            x       y       z     vdW  Elec       q    Type
REMARK                         _______ _______ _______ _____ _____    ______ ____
ROOT
ATOM      1  O   HOH     1      11.469  -2.741   0.512  0.00  0.00    +0.000 OA
ENDROOT
TORSDOF 0
REMARK  Name = ../refined-set-2016/4cg8/4cg8_pocket.pdb
REMARK  240 active torsions:
REMARK  status: ('A' for Active; 'I' for Inactive)
REMARK    1  A    between atoms: _1  and  _3
REMARK    2  A    between atoms: _3  and  _4
REMARK    3  A    between atoms: _3  and  _6
REMARK    4  A    between atoms: _6  and  _7
REMARK    5  A    between atoms: _7  and  _8
REMARK    6  A    between atoms: _8  and  _9
REMARK    7  A    between atoms: _18  and  _20
REMARK    8  A    between atoms: _20  and  _21
REMARK    9  A    between atoms: _20  and  _23
REMARK   10  A    between atoms: _23  and  _24
REMARK   11  A    between atoms: _26  and  _28
REMARK   12  A    between atoms: _28  and  _29
REMARK   13  A    between atoms: _28  and  _31
REMARK   14  A    between atoms: _31  and  _32
REMARK   15  A    between atoms: _37  and  _39
REMARK   16  A    between atoms: _39  and  _40
REMARK   17  A    between atoms: _39  and  _42
REMARK   18  A    between atoms: _42  and  _43
REMARK   19  A    between atoms: _46  and  _48
REMARK   20  A    between atoms: _48  and  _49
REMARK   21  A    between atoms: _48  and  _51
REMARK   22  A    between atoms: _51  and  _52
REMARK   23  A    between atoms: _62  and  _64
REMARK   24  A    between atoms: _64  and  _65
REMARK   25  A    between atoms: _64  and  _67
REMARK   26  A    between atoms: _67  and  _68
REMARK   27  A    between atoms: _71  and  _73
REMARK   28  A    between atoms: _73  and  _74
REMARK   29  A    between atoms: _76  and  _78
REMARK   30  A    between atoms: _78  and  _79
REMARK   31  A    between atoms: _78  and  _81
REMARK   32  A    between atoms: _81  and  _82
REMARK   33  A    between atoms: _85  and  _87
REMARK   34  A    between atoms: _87  and  _88
REMARK   35  A    between atoms: _87  and  _90
REMARK   36  A    between atoms: _90  and  _91
REMARK   37  A    between atoms: _91  and  _92
REMARK   38  A    between atoms: _94  and  _96
REMARK   39  A    between atoms: _96  and  _97
REMARK   40  A    between atoms: _96  and  _99
REMARK   41  A    between atoms: _99  and  _100
REMARK   42  A    between atoms: _100  and  _101
REMARK   43  A    between atoms: _104  and  _106
REMARK   44  A    between atoms: _106  and  _107
REMARK   45  A    between atoms: _106  and  _109
REMARK   46  A    between atoms: _109  and  _110
REMARK   47  A    between atoms: _110  and  _111
REMARK   48  A    between atoms: _111  and  _112
REMARK   49  A    between atoms: _112  and  _113
REMARK   50  A    between atoms: _117  and  _119
REMARK   51  A    between atoms: _119  and  _120
REMARK   52  A    between atoms: _119  and  _122
REMARK   53  A    between atoms: _122  and  _123
REMARK   54  A    between atoms: _128  and  _129
REMARK   55  A    between atoms: _131  and  _133
REMARK   56  A    between atoms: _133  and  _134
REMARK   57  A    between atoms: _133  and  _136
REMARK   58  A    between atoms: _136  and  _137
REMARK   59  A    between atoms: _140  and  _142
REMARK   60  A    between atoms: _142  and  _143
REMARK   61  A    between atoms: _142  and  _145
REMARK   62  A    between atoms: _145  and  _146
REMARK   63  A    between atoms: _151  and  _153
REMARK   64  A    between atoms: _153  and  _154
REMARK   65  A    between atoms: _153  and  _156
REMARK   66  A    between atoms: _156  and  _157
REMARK   67  A    between atoms: _162  and  _164
REMARK   68  A    between atoms: _164  and  _165
REMARK   69  A    between atoms: _164  and  _167
REMARK   70  A    between atoms: _167  and  _168
REMARK   71  A    between atoms: _171  and  _173
REMARK   72  A    between atoms: _173  and  _174
REMARK   73  A    between atoms: _173  and  _176
REMARK   74  A    between atoms: _178  and  _180
REMARK   75  A    between atoms: _180  and  _181
REMARK   76  A    between atoms: _180  and  _183
REMARK   77  A    between atoms: _183  and  _184
REMARK   78  A    between atoms: _184  and  _185
REMARK   79  A    between atoms: _190  and  _192
REMARK   80  A    between atoms: _192  and  _193
REMARK   81  A    between atoms: _192  and  _195
REMARK   82  A    between atoms: _195  and  _196
REMARK   83  A    between atoms: _196  and  _197
REMARK   84  A    between atoms: _200  and  _202
REMARK   85  A    between atoms: _202  and  _203
REMARK   86  A    between atoms: _205  and  _207
REMARK   87  A    between atoms: _207  and  _208
REMARK   88  A    between atoms: _207  and  _210
REMARK   89  A    between atoms: _210  and  _211
REMARK   90  A    between atoms: _216  and  _218
REMARK   91  A    between atoms: _218  and  _219
REMARK   92  A    between atoms: _218  and  _221
REMARK   93  A    between atoms: _221  and  _222
REMARK   94  A    between atoms: _225  and  _227
REMARK   95  A    between atoms: _227  and  _228
REMARK   96  A    between atoms: _227  and  _230
REMARK   97  A    between atoms: _230  and  _231
REMARK   98  A    between atoms: _231  and  _232
REMARK   99  A    between atoms: _235  and  _237
REMARK  100  A    between atoms: _237  and  _238
REMARK  101  A    between atoms: _237  and  _240
REMARK  102  A    between atoms: _240  and  _241
REMARK  103  A    between atoms: _246  and  _247
REMARK  104  A    between atoms: _249  and  _251
REMARK  105  A    between atoms: _251  and  _252
REMARK  106  A    between atoms: _251  and  _254
REMARK  107  A    between atoms: _254  and  _255
REMARK  108  A    between atoms: _257  and  _259
REMARK  109  A    between atoms: _259  and  _260
REMARK  110  A    between atoms: _259  and  _262
REMARK  111  A    between atoms: _262  and  _263
REMARK  112  A    between atoms: _268  and  _270
REMARK  113  A    between atoms: _270  and  _271
REMARK  114  A    between atoms: _270  and  _273
REMARK  115  A    between atoms: _273  and  _274
REMARK  116  A    between atoms: _280  and  _282
REMARK  117  A    between atoms: _282  and  _283
REMARK  118  A    between atoms: _282  and  _285
REMARK  119  A    between atoms: _285  and  _286
REMARK  120  A    between atoms: _291  and  _293
REMARK  121  A    between atoms: _293  and  _294
REMARK  122  A    between atoms: _293  and  _296
REMARK  123  A    between atoms: _296  and  _297
REMARK  124  A    between atoms: _297  and  _298
REMARK  125  A    between atoms: _301  and  _303
REMARK  126  A    between atoms: _303  and  _304
REMARK  127  A    between atoms: _303  and  _306
REMARK  128  A    between atoms: _306  and  _307
REMARK  129  A    between atoms: _312  and  _313
REMARK  130  A    between atoms: _315  and  _317
REMARK  131  A    between atoms: _317  and  _318
REMARK  132  A    between atoms: _317  and  _320
REMARK  133  A    between atoms: _320  and  _321
REMARK  134  A    between atoms: _324  and  _326
REMARK  135  A    between atoms: _326  and  _327
REMARK  136  A    between atoms: _326  and  _329
REMARK  137  A    between atoms: _329  and  _330
REMARK  138  A    between atoms: _335  and  _336
REMARK  139  A    between atoms: _338  and  _340
REMARK  140  A    between atoms: _340  and  _341
REMARK  141  A    between atoms: _340  and  _343
REMARK  142  A    between atoms: _343  and  _344
REMARK  143  A    between atoms: _346  and  _348
REMARK  144  A    between atoms: _348  and  _349
REMARK  145  A    between atoms: _348  and  _351
REMARK  146  A    between atoms: _351  and  _352
REMARK  147  A    between atoms: _357  and  _358
REMARK  148  A    between atoms: _360  and  _362
REMARK  149  A    between atoms: _362  and  _363
REMARK  150  A    between atoms: _362  and  _365
REMARK  151  A    between atoms: _365  and  _366
REMARK  152  A    between atoms: _372  and  _374
REMARK  153  A    between atoms: _374  and  _375
REMARK  154  A    between atoms: _374  and  _377
REMARK  155  A    between atoms: _377  and  _378
REMARK  156  A    between atoms: _384  and  _386
REMARK  157  A    between atoms: _386  and  _387
REMARK  158  A    between atoms: _390  and  _392
REMARK  159  A    between atoms: _392  and  _393
REMARK  160  A    between atoms: _392  and  _395
REMARK  161  A    between atoms: _395  and  _396
REMARK  162  A    between atoms: _398  and  _400
REMARK  163  A    between atoms: _400  and  _401
REMARK  164  A    between atoms: _400  and  _403
REMARK  165  A    between atoms: _403  and  _404
REMARK  166  A    between atoms: _410  and  _412
REMARK  167  A    between atoms: _412  and  _413
REMARK  168  A    between atoms: _412  and  _415
REMARK  169  A    between atoms: _415  and  _416
REMARK  170  A    between atoms: _419  and  _421
REMARK  171  A    between atoms: _421  and  _422
REMARK  172  A    between atoms: _421  and  _424
REMARK  173  A    between atoms: _424  and  _425
REMARK  174  A    between atoms: _435  and  _437
REMARK  175  A    between atoms: _437  and  _438
REMARK  176  A    between atoms: _440  and  _442
REMARK  177  A    between atoms: _442  and  _443
REMARK  178  A    between atoms: _442  and  _445
REMARK  179  A    between atoms: _445  and  _446
REMARK  180  A    between atoms: _449  and  _451
REMARK  181  A    between atoms: _451  and  _452
REMARK  182  A    between atoms: _451  and  _454
REMARK  183  A    between atoms: _454  and  _455
REMARK  184  A    between atoms: _465  and  _467
REMARK  185  A    between atoms: _467  and  _468
REMARK  186  A    between atoms: _467  and  _470
REMARK  187  A    between atoms: _470  and  _471
REMARK  188  A    between atoms: _473  and  _475
REMARK  189  A    between atoms: _475  and  _476
REMARK  190  A    between atoms: _475  and  _478
REMARK  191  A    between atoms: _478  and  _479
REMARK  192  A    between atoms: _482  and  _484
REMARK  193  A    between atoms: _484  and  _485
REMARK  194  A    between atoms: _484  and  _487
REMARK  195  A    between atoms: _490  and  _492
REMARK  196  A    between atoms: _492  and  _493
REMARK  197  A    between atoms: _492  and  _495
REMARK  198  A    between atoms: _495  and  _496
REMARK  199  A    between atoms: _496  and  _497
REMARK  200  A    between atoms: _502  and  _504
REMARK  201  A    between atoms: _504  and  _505
REMARK  202  A    between atoms: _504  and  _507
REMARK  203  A    between atoms: _507  and  _508
REMARK  204  A    between atoms: _510  and  _512
REMARK  205  A    between atoms: _512  and  _513
REMARK  206  A    between atoms: _512  and  _515
REMARK  207  A    between atoms: _515  and  _516
REMARK  208  A    between atoms: _518  and  _520
REMARK  209  A    between atoms: _520  and  _521
REMARK  210  A    between atoms: _520  and  _523
REMARK  211  A    between atoms: _523  and  _524
REMARK  212  A    between atoms: _527  and  _529
REMARK  213  A    between atoms: _529  and  _530
REMARK  214  A    between atoms: _529  and  _532
REMARK  215  A    between atoms: _532  and  _533
REMARK  216  A    between atoms: _533  and  _534
REMARK  217  A    between atoms: _537  and  _539
REMARK  218  A    between atoms: _539  and  _540
REMARK  219  A    between atoms: _539  and  _542
REMARK  220  A    between atoms: _542  and  _543
REMARK  221  A    between atoms: _549  and  _551
REMARK  222  A    between atoms: _551  and  _552
REMARK  223  A    between atoms: _554  and  _556
REMARK  224  A    between atoms: _556  and  _557
REMARK  225  A    between atoms: _556  and  _559
REMARK  226  A    between atoms: _559  and  _560
REMARK  227  A    between atoms: _565  and  _566
REMARK  228  A    between atoms: _568  and  _570
REMARK  229  A    between atoms: _570  and  _571
REMARK  230  A    between atoms: _570  and  _573
REMARK  231  A    between atoms: _573  and  _574
REMARK  232  A    between atoms: _579  and  _580
REMARK  233  A    between atoms: _582  and  _584
REMARK  234  A    between atoms: _584  and  _585
REMARK  235  A    between atoms: _588  and  _590
REMARK  236  A    between atoms: _590  and  _591
REMARK  237  A    between atoms: _590  and  _593
REMARK  238  A    between atoms: _593  and  _594
REMARK  239  A    between atoms: _594  and  _595
REMARK  240  A    between atoms: _595  and  _596
REMARK                            x       y       z     vdW  Elec       q    Type
REMARK                         _______ _______ _______ _____ _____    ______ ____
ROOT
ATOM      1  O   HOH     1      23.670  -5.428   4.319  0.00  0.00    +0.000 OA
ENDROOT
TORSDOF 0
REMARK  Name = ../refined-set-2016/4cg8/4cg8_pocket.pdb
REMARK  240 active torsions:
REMARK  status: ('A' for Active; 'I' for Inactive)
REMARK    1  A    between atoms: _1  and  _3
REMARK    2  A    between atoms: _3  and  _4
REMARK    3  A    between atoms: _3  and  _6
REMARK    4  A    between atoms: _6  and  _7
REMARK    5  A    between atoms: _7  and  _8
REMARK    6  A    between atoms: _8  and  _9
REMARK    7  A    between atoms: _18  and  _20
REMARK    8  A    between atoms: _20  and  _21
REMARK    9  A    between atoms: _20  and  _23
REMARK   10  A    between atoms: _23  and  _24
REMARK   11  A    between atoms: _26  and  _28
REMARK   12  A    between atoms: _28  and  _29
REMARK   13  A    between atoms: _28  and  _31
REMARK   14  A    between atoms: _31  and  _32
REMARK   15  A    between atoms: _37  and  _39
REMARK   16  A    between atoms: _39  and  _40
REMARK   17  A    between atoms: _39  and  _42
REMARK   18  A    between atoms: _42  and  _43
REMARK   19  A    between atoms: _46  and  _48
REMARK   20  A    between atoms: _48  and  _49
REMARK   21  A    between atoms: _48  and  _51
REMARK   22  A    between atoms: _51  and  _52
REMARK   23  A    between atoms: _62  and  _64
REMARK   24  A    between atoms: _64  and  _65
REMARK   25  A    between atoms: _64  and  _67
REMARK   26  A    between atoms: _67  and  _68
REMARK   27  A    between atoms: _71  and  _73
REMARK   28  A    between atoms: _73  and  _74
REMARK   29  A    between atoms: _76  and  _78
REMARK   30  A    between atoms: _78  and  _79
REMARK   31  A    between atoms: _78  and  _81
REMARK   32  A    between atoms: _81  and  _82
REMARK   33  A    between atoms: _85  and  _87
REMARK   34  A    between atoms: _87  and  _88
REMARK   35  A    between atoms: _87  and  _90
REMARK   36  A    between atoms: _90  and  _91
REMARK   37  A    between atoms: _91  and  _92
REMARK   38  A    between atoms: _94  and  _96
REMARK   39  A    between atoms: _96  and  _97
REMARK   40  A    between atoms: _96  and  _99
REMARK   41  A    between atoms: _99  and  _100
REMARK   42  A    between atoms: _100  and  _101
REMARK   43  A    between atoms: _104  and  _106
REMARK   44  A    between atoms: _106  and  _107
REMARK   45  A    between atoms: _106  and  _109
REMARK   46  A    between atoms: _109  and  _110
REMARK   47  A    between atoms: _110  and  _111
REMARK   48  A    between atoms: _111  and  _112
REMARK   49  A    between atoms: _112  and  _113
REMARK   50  A    between atoms: _117  and  _119
REMARK   51  A    between atoms: _119  and  _120
REMARK   52  A    between atoms: _119  and  _122
REMARK   53  A    between atoms: _122  and  _123
REMARK   54  A    between atoms: _128  and  _129
REMARK   55  A    between atoms: _131  and  _133
REMARK   56  A    between atoms: _133  and  _134
REMARK   57  A    between atoms: _133  and  _136
REMARK   58  A    between atoms: _136  and  _137
REMARK   59  A    between atoms: _140  and  _142
REMARK   60  A    between atoms: _142  and  _143
REMARK   61  A    between atoms: _142  and  _145
REMARK   62  A    between atoms: _145  and  _146
REMARK   63  A    between atoms: _151  and  _153
REMARK   64  A    between atoms: _153  and  _154
REMARK   65  A    between atoms: _153  and  _156
REMARK   66  A    between atoms: _156  and  _157
REMARK   67  A    between atoms: _162  and  _164
REMARK   68  A    between atoms: _164  and  _165
REMARK   69  A    between atoms: _164  and  _167
REMARK   70  A    between atoms: _167  and  _168
REMARK   71  A    between atoms: _171  and  _173
REMARK   72  A    between atoms: _173  and  _174
REMARK   73  A    between atoms: _173  and  _176
REMARK   74  A    between atoms: _178  and  _180
REMARK   75  A    between atoms: _180  and  _181
REMARK   76  A    between atoms: _180  and  _183
REMARK   77  A    between atoms: _183  and  _184
REMARK   78  A    between atoms: _184  and  _185
REMARK   79  A    between atoms: _190  and  _192
REMARK   80  A    between atoms: _192  and  _193
REMARK   81  A    between atoms: _192  and  _195
REMARK   82  A    between atoms: _195  and  _196
REMARK   83  A    between atoms: _196  and  _197
REMARK   84  A    between atoms: _200  and  _202
REMARK   85  A    between atoms: _202  and  _203
REMARK   86  A    between atoms: _205  and  _207
REMARK   87  A    between atoms: _207  and  _208
REMARK   88  A    between atoms: _207  and  _210
REMARK   89  A    between atoms: _210  and  _211
REMARK   90  A    between atoms: _216  and  _218
REMARK   91  A    between atoms: _218  and  _219
REMARK   92  A    between atoms: _218  and  _221
REMARK   93  A    between atoms: _221  and  _222
REMARK   94  A    between atoms: _225  and  _227
REMARK   95  A    between atoms: _227  and  _228
REMARK   96  A    between atoms: _227  and  _230
REMARK   97  A    between atoms: _230  and  _231
REMARK   98  A    between atoms: _231  and  _232
REMARK   99  A    between atoms: _235  and  _237
REMARK  100  A    between atoms: _237  and  _238
REMARK  101  A    between atoms: _237  and  _240
REMARK  102  A    between atoms: _240  and  _241
REMARK  103  A    between atoms: _246  and  _247
REMARK  104  A    between atoms: _249  and  _251
REMARK  105  A    between atoms: _251  and  _252
REMARK  106  A    between atoms: _251  and  _254
REMARK  107  A    between atoms: _254  and  _255
REMARK  108  A    between atoms: _257  and  _259
REMARK  109  A    between atoms: _259  and  _260
REMARK  110  A    between atoms: _259  and  _262
REMARK  111  A    between atoms: _262  and  _263
REMARK  112  A    between atoms: _268  and  _270
REMARK  113  A    between atoms: _270  and  _271
REMARK  114  A    between atoms: _270  and  _273
REMARK  115  A    between atoms: _273  and  _274
REMARK  116  A    between atoms: _280  and  _282
REMARK  117  A    between atoms: _282  and  _283
REMARK  118  A    between atoms: _282  and  _285
REMARK  119  A    between atoms: _285  and  _286
REMARK  120  A    between atoms: _291  and  _293
REMARK  121  A    between atoms: _293  and  _294
REMARK  122  A    between atoms: _293  and  _296
REMARK  123  A    between atoms: _296  and  _297
REMARK  124  A    between atoms: _297  and  _298
REMARK  125  A    between atoms: _301  and  _303
REMARK  126  A    between atoms: _303  and  _304
REMARK  127  A    between atoms: _303  and  _306
REMARK  128  A    between atoms: _306  and  _307
REMARK  129  A    between atoms: _312  and  _313
REMARK  130  A    between atoms: _315  and  _317
REMARK  131  A    between atoms: _317  and  _318
REMARK  132  A    between atoms: _317  and  _320
REMARK  133  A    between atoms: _320  and  _321
REMARK  134  A    between atoms: _324  and  _326
REMARK  135  A    between atoms: _326  and  _327
REMARK  136  A    between atoms: _326  and  _329
REMARK  137  A    between atoms: _329  and  _330
REMARK  138  A    between atoms: _335  and  _336
REMARK  139  A    between atoms: _338  and  _340
REMARK  140  A    between atoms: _340  and  _341
REMARK  141  A    between atoms: _340  and  _343
REMARK  142  A    between atoms: _343  and  _344
REMARK  143  A    between atoms: _346  and  _348
REMARK  144  A    between atoms: _348  and  _349
REMARK  145  A    between atoms: _348  and  _351
REMARK  146  A    between atoms: _351  and  _352
REMARK  147  A    between atoms: _357  and  _358
REMARK  148  A    between atoms: _360  and  _362
REMARK  149  A    between atoms: _362  and  _363
REMARK  150  A    between atoms: _362  and  _365
REMARK  151  A    between atoms: _365  and  _366
REMARK  152  A    between atoms: _372  and  _374
REMARK  153  A    between atoms: _374  and  _375
REMARK  154  A    between atoms: _374  and  _377
REMARK  155  A    between atoms: _377  and  _378
REMARK  156  A    between atoms: _384  and  _386
REMARK  157  A    between atoms: _386  and  _387
REMARK  158  A    between atoms: _390  and  _392
REMARK  159  A    between atoms: _392  and  _393
REMARK  160  A    between atoms: _392  and  _395
REMARK  161  A    between atoms: _395  and  _396
REMARK  162  A    between atoms: _398  and  _400
REMARK  163  A    between atoms: _400  and  _401
REMARK  164  A    between atoms: _400  and  _403
REMARK  165  A    between atoms: _403  and  _404
REMARK  166  A    between atoms: _410  and  _412
REMARK  167  A    between atoms: _412  and  _413
REMARK  168  A    between atoms: _412  and  _415
REMARK  169  A    between atoms: _415  and  _416
REMARK  170  A    between atoms: _419  and  _421
REMARK  171  A    between atoms: _421  and  _422
REMARK  172  A    between atoms: _421  and  _424
REMARK  173  A    between atoms: _424  and  _425
REMARK  174  A    between atoms: _435  and  _437
REMARK  175  A    between atoms: _437  and  _438
REMARK  176  A    between atoms: _440  and  _442
REMARK  177  A    between atoms: _442  and  _443
REMARK  178  A    between atoms: _442  and  _445
REMARK  179  A    between atoms: _445  and  _446
REMARK  180  A    between atoms: _449  and  _451
REMARK  181  A    between atoms: _451  and  _452
REMARK  182  A    between atoms: _451  and  _454
REMARK  183  A    between atoms: _454  and  _455
REMARK  184  A    between atoms: _465  and  _467
REMARK  185  A    between atoms: _467  and  _468
REMARK  186  A    between atoms: _467  and  _470
REMARK  187  A    between atoms: _470  and  _471
REMARK  188  A    between atoms: _473  and  _475
REMARK  189  A    between atoms: _475  and  _476
REMARK  190  A    between atoms: _475  and  _478
REMARK  191  A    between atoms: _478  and  _479
REMARK  192  A    between atoms: _482  and  _484
REMARK  193  A    between atoms: _484  and  _485
REMARK  194  A    between atoms: _484  and  _487
REMARK  195  A    between atoms: _490  and  _492
REMARK  196  A    between atoms: _492  and  _493
REMARK  197  A    between atoms: _492  and  _495
REMARK  198  A    between atoms: _495  and  _496
REMARK  199  A    between atoms: _496  and  _497
REMARK  200  A    between atoms: _502  and  _504
REMARK  201  A    between atoms: _504  and  _505
REMARK  202  A    between atoms: _504  and  _507
REMARK  203  A    between atoms: _507  and  _508
REMARK  204  A    between atoms: _510  and  _512
REMARK  205  A    between atoms: _512  and  _513
REMARK  206  A    between atoms: _512  and  _515
REMARK  207  A    between atoms: _515  and  _516
REMARK  208  A    between atoms: _518  and  _520
REMARK  209  A    between atoms: _520  and  _521
REMARK  210  A    between atoms: _520  and  _523
REMARK  211  A    between atoms: _523  and  _524
REMARK  212  A    between atoms: _527  and  _529
REMARK  213  A    between atoms: _529  and  _530
REMARK  214  A    between atoms: _529  and  _532
REMARK  215  A    between atoms: _532  and  _533
REMARK  216  A    between atoms: _533  and  _534
REMARK  217  A    between atoms: _537  and  _539
REMARK  218  A    between atoms: _539  and  _540
REMARK  219  A    between atoms: _539  and  _542
REMARK  220  A    between atoms: _542  and  _543
REMARK  221  A    between atoms: _549  and  _551
REMARK  222  A    between atoms: _551  and  _552
REMARK  223  A    between atoms: _554  and  _556
REMARK  224  A    between atoms: _556  and  _557
REMARK  225  A    between atoms: _556  and  _559
REMARK  226  A    between atoms: _559  and  _560
REMARK  227  A    between atoms: _565  and  _566
REMARK  228  A    between atoms: _568  and  _570
REMARK  229  A    between atoms: _570  and  _571
REMARK  230  A    between atoms: _570  and  _573
REMARK  231  A    between atoms: _573  and  _574
REMARK  232  A    between atoms: _579  and  _580
REMARK  233  A    between atoms: _582  and  _584
REMARK  234  A    between atoms: _584  and  _585
REMARK  235  A    between atoms: _588  and  _590
REMARK  236  A    between atoms: _590  and  _591
REMARK  237  A    between atoms: _590  and  _593
REMARK  238  A    between atoms: _593  and  _594
REMARK  239  A    between atoms: _594  and  _595
REMARK  240  A    between atoms: _595  and  _596
REMARK                            x       y       z     vdW  Elec       q    Type
REMARK                         _______ _______ _______ _____ _____    ______ ____
ROOT
ATOM      1  O   HOH     1      26.083  -4.420   0.949  0.00  0.00    +0.000 OA
ENDROOT
TORSDOF 0
