REMARK  Name = ../refined-set-2016/3ta0/3ta0_pocket.pdb
REMARK  214 active torsions:
REMARK  status: ('A' for Active; 'I' for Inactive)
REMARK    1  A    between atoms: _1  and  _3
REMARK    2  A    between atoms: _3  and  _4
REMARK    3  A    between atoms: _7  and  _9
REMARK    4  A    between atoms: _9  and  _10
REMARK    5  A    between atoms: _9  and  _12
REMARK    6  A    between atoms: _15  and  _17
REMARK    7  A    between atoms: _17  and  _18
REMARK    8  A    between atoms: _17  and  _20
REMARK    9  A    between atoms: _20  and  _21
REMARK   10  A    between atoms: _24  and  _26
REMARK   11  A    between atoms: _26  and  _27
REMARK   12  A    between atoms: _26  and  _29
REMARK   13  A    between atoms: _29  and  _30
REMARK   14  A    between atoms: _30  and  _31
REMARK   15  A    between atoms: _31  and  _32
REMARK   16  A    between atoms: _41  and  _43
REMARK   17  A    between atoms: _43  and  _44
REMARK   18  A    between atoms: _43  and  _46
REMARK   19  A    between atoms: _49  and  _51
REMARK   20  A    between atoms: _51  and  _52
REMARK   21  A    between atoms: _51  and  _54
REMARK   22  A    between atoms: _54  and  _55
REMARK   23  A    between atoms: _55  and  _56
REMARK   24  A    between atoms: _56  and  _57
REMARK   25  A    between atoms: _57  and  _58
REMARK   26  A    between atoms: _62  and  _64
REMARK   27  A    between atoms: _64  and  _65
REMARK   28  A    between atoms: _67  and  _69
REMARK   29  A    between atoms: _69  and  _70
REMARK   30  A    between atoms: _69  and  _72
REMARK   31  A    between atoms: _72  and  _73
REMARK   32  A    between atoms: _73  and  _74
REMARK   33  A    between atoms: _74  and  _75
REMARK   34  A    between atoms: _84  and  _86
REMARK   35  A    between atoms: _86  and  _87
REMARK   36  A    between atoms: _89  and  _91
REMARK   37  A    between atoms: _91  and  _92
REMARK   38  A    between atoms: _91  and  _94
REMARK   39  A    between atoms: _94  and  _95
REMARK   40  A    between atoms: _95  and  _96
REMARK   41  A    between atoms: _99  and  _101
REMARK   42  A    between atoms: _101  and  _102
REMARK   43  A    between atoms: _101  and  _104
REMARK   44  A    between atoms: _104  and  _105
REMARK   45  A    between atoms: _105  and  _106
REMARK   46  A    between atoms: _111  and  _113
REMARK   47  A    between atoms: _113  and  _114
REMARK   48  A    between atoms: _113  and  _116
REMARK   49  A    between atoms: _116  and  _117
REMARK   50  A    between atoms: _120  and  _122
REMARK   51  A    between atoms: _122  and  _123
REMARK   52  A    between atoms: _122  and  _125
REMARK   53  A    between atoms: _125  and  _126
REMARK   54  A    between atoms: _129  and  _131
REMARK   55  A    between atoms: _131  and  _132
REMARK   56  A    between atoms: _131  and  _134
REMARK   57  A    between atoms: _134  and  _135
REMARK   58  A    between atoms: _138  and  _140
REMARK   59  A    between atoms: _140  and  _141
REMARK   60  A    between atoms: _140  and  _143
REMARK   61  A    between atoms: _143  and  _144
REMARK   62  A    between atoms: _144  and  _145
REMARK   63  A    between atoms: _150  and  _152
REMARK   64  A    between atoms: _152  and  _153
REMARK   65  A    between atoms: _152  and  _155
REMARK   66  A    between atoms: _155  and  _156
REMARK   67  A    between atoms: _156  and  _157
REMARK   68  A    between atoms: _157  and  _158
REMARK   69  A    between atoms: _158  and  _159
REMARK   70  A    between atoms: _163  and  _165
REMARK   71  A    between atoms: _165  and  _166
REMARK   72  A    between atoms: _165  and  _168
REMARK   73  A    between atoms: _168  and  _169
REMARK   74  A    between atoms: _172  and  _174
REMARK   75  A    between atoms: _174  and  _175
REMARK   76  A    between atoms: _174  and  _177
REMARK   77  A    between atoms: _177  and  _178
REMARK   78  A    between atoms: _178  and  _179
REMARK   79  A    between atoms: _179  and  _180
REMARK   80  A    between atoms: _180  and  _181
REMARK   81  A    between atoms: _185  and  _187
REMARK   82  A    between atoms: _187  and  _188
REMARK   83  A    between atoms: _187  and  _190
REMARK   84  A    between atoms: _190  and  _191
REMARK   85  A    between atoms: _194  and  _196
REMARK   86  A    between atoms: _196  and  _197
REMARK   87  A    between atoms: _199  and  _201
REMARK   88  A    between atoms: _201  and  _202
REMARK   89  A    between atoms: _201  and  _204
REMARK   90  A    between atoms: _204  and  _205
REMARK   91  A    between atoms: _205  and  _206
REMARK   92  A    between atoms: _206  and  _207
REMARK   93  A    between atoms: _207  and  _208
REMARK   94  A    between atoms: _212  and  _214
REMARK   95  A    between atoms: _214  and  _215
REMARK   96  A    between atoms: _214  and  _217
REMARK   97  A    between atoms: _217  and  _218
REMARK   98  A    between atoms: _224  and  _226
REMARK   99  A    between atoms: _226  and  _227
REMARK  100  A    between atoms: _229  and  _231
REMARK  101  A    between atoms: _231  and  _232
REMARK  102  A    between atoms: _231  and  _234
REMARK  103  A    between atoms: _234  and  _235
REMARK  104  A    between atoms: _238  and  _240
REMARK  105  A    between atoms: _240  and  _241
REMARK  106  A    between atoms: _243  and  _245
REMARK  107  A    between atoms: _245  and  _246
REMARK  108  A    between atoms: _245  and  _248
REMARK  109  A    between atoms: _248  and  _249
REMARK  110  A    between atoms: _249  and  _250
REMARK  111  A    between atoms: _250  and  _251
REMARK  112  A    between atoms: _260  and  _262
REMARK  113  A    between atoms: _262  and  _263
REMARK  114  A    between atoms: _262  and  _265
REMARK  115  A    between atoms: _265  and  _266
REMARK  116  A    between atoms: _269  and  _271
REMARK  117  A    between atoms: _271  and  _272
REMARK  118  A    between atoms: _271  and  _274
REMARK  119  A    between atoms: _274  and  _275
REMARK  120  A    between atoms: _281  and  _285
REMARK  121  A    between atoms: _285  and  _286
REMARK  122  A    between atoms: _285  and  _288
REMARK  123  A    between atoms: _288  and  _289
REMARK  124  A    between atoms: _289  and  _290
REMARK  125  A    between atoms: _292  and  _294
REMARK  126  A    between atoms: _294  and  _295
REMARK  127  A    between atoms: _294  and  _297
REMARK  128  A    between atoms: _297  and  _298
REMARK  129  A    between atoms: _298  and  _299
REMARK  130  A    between atoms: _299  and  _300
REMARK  131  A    between atoms: _300  and  _301
REMARK  132  A    between atoms: _305  and  _307
REMARK  133  A    between atoms: _307  and  _308
REMARK  134  A    between atoms: _307  and  _310
REMARK  135  A    between atoms: _310  and  _311
REMARK  136  A    between atoms: _311  and  _312
REMARK  137  A    between atoms: _314  and  _316
REMARK  138  A    between atoms: _316  and  _317
REMARK  139  A    between atoms: _316  and  _319
REMARK  140  A    between atoms: _322  and  _324
REMARK  141  A    between atoms: _324  and  _325
REMARK  142  A    between atoms: _324  and  _327
REMARK  143  A    between atoms: _327  and  _328
REMARK  144  A    between atoms: _334  and  _336
REMARK  145  A    between atoms: _336  and  _337
REMARK  146  A    between atoms: _336  and  _339
REMARK  147  A    between atoms: _342  and  _344
REMARK  148  A    between atoms: _344  and  _345
REMARK  149  A    between atoms: _347  and  _349
REMARK  150  A    between atoms: _349  and  _350
REMARK  151  A    between atoms: _349  and  _352
REMARK  152  A    between atoms: _352  and  _353
REMARK  153  A    between atoms: _353  and  _354
REMARK  154  A    between atoms: _356  and  _358
REMARK  155  A    between atoms: _358  and  _359
REMARK  156  A    between atoms: _358  and  _361
REMARK  157  A    between atoms: _361  and  _362
REMARK  158  A    between atoms: _365  and  _367
REMARK  159  A    between atoms: _367  and  _368
REMARK  160  A    between atoms: _367  and  _370
REMARK  161  A    between atoms: _373  and  _375
REMARK  162  A    between atoms: _375  and  _376
REMARK  163  A    between atoms: _375  and  _378
REMARK  164  A    between atoms: _381  and  _383
REMARK  165  A    between atoms: _383  and  _384
REMARK  166  A    between atoms: _383  and  _386
REMARK  167  A    between atoms: _386  and  _387
REMARK  168  A    between atoms: _387  and  _388
REMARK  169  A    between atoms: _391  and  _393
REMARK  170  A    between atoms: _393  and  _394
REMARK  171  A    between atoms: _393  and  _396
REMARK  172  A    between atoms: _399  and  _401
REMARK  173  A    between atoms: _401  and  _402
REMARK  174  A    between atoms: _401  and  _404
REMARK  175  A    between atoms: _407  and  _409
REMARK  176  A    between atoms: _409  and  _410
REMARK  177  A    between atoms: _409  and  _412
REMARK  178  A    between atoms: _415  and  _417
REMARK  179  A    between atoms: _417  and  _418
REMARK  180  A    between atoms: _417  and  _420
REMARK  181  A    between atoms: _420  and  _421
REMARK  182  A    between atoms: _423  and  _425
REMARK  183  A    between atoms: _425  and  _426
REMARK  184  A    between atoms: _425  and  _428
REMARK  185  A    between atoms: _428  and  _429
REMARK  186  A    between atoms: _431  and  _433
REMARK  187  A    between atoms: _433  and  _434
REMARK  188  A    between atoms: _433  and  _436
REMARK  189  A    between atoms: _439  and  _441
REMARK  190  A    between atoms: _441  and  _442
REMARK  191  A    between atoms: _441  and  _444
REMARK  192  A    between atoms: _444  and  _445
REMARK  193  A    between atoms: _445  and  _446
REMARK  194  A    between atoms: _446  and  _447
REMARK  195  A    between atoms: _447  and  _448
REMARK  196  A    between atoms: _452  and  _454
REMARK  197  A    between atoms: _454  and  _455
REMARK  198  A    between atoms: _454  and  _457
REMARK  199  A    between atoms: _457  and  _458
REMARK  200  A    between atoms: _461  and  _463
REMARK  201  A    between atoms: _463  and  _464
REMARK  202  A    between atoms: _463  and  _466
REMARK  203  A    between atoms: _466  and  _467
REMARK  204  A    between atoms: _467  and  _468
REMARK  205  A    between atoms: _468  and  _469
REMARK  206  A    between atoms: _478  and  _480
REMARK  207  A    between atoms: _480  and  _481
REMARK  208  A    between atoms: _480  and  _483
REMARK  209  A    between atoms: _483  and  _484
REMARK  210  A    between atoms: _487  and  _489
REMARK  211  A    between atoms: _489  and  _490
REMARK  212  A    between atoms: _489  and  _492
REMARK  213  A    between atoms: _492  and  _493
REMARK  214  A    between atoms: _493  and  _494
REMARK                            x       y       z     vdW  Elec       q    Type
REMARK                         _______ _______ _______ _____ _____    ______ ____
ROOT
ATOM      1  CA  ILE A   3     -56.334  -7.046  -9.210  0.00  0.00    +0.149 C 
ENDROOT
BRANCH   1   3
ATOM      2  C   VAL A   2     -54.430  -7.177 -10.792  0.00  0.00    +0.241 C 
ATOM      3  N   ILE A   3     -55.237  -6.463 -10.006  0.00  0.00    -0.297 N 
ATOM      4  H   ILE A   3     -55.084  -5.436  -9.951  0.00  0.00    +0.150 HD
ATOM      5  O   VAL A   2     -54.539  -8.395 -10.941  0.00  0.00    -0.273 OA
BRANCH   2   6
ATOM      6  CA  VAL A   2     -53.268  -6.422 -11.432  0.00  0.00    +0.148 C 
BRANCH   6   9
ATOM      7  C   ALA A   1     -51.303  -6.255  -9.959  0.00  0.00    +0.238 C 
ATOM      8  O   ALA A   1     -51.434  -5.037  -9.798  0.00  0.00    -0.274 OA
ATOM      9  N   VAL A   2     -52.079  -6.975 -10.765  0.00  0.00    -0.297 N 
ATOM     10  H   VAL A   2     -51.834  -7.972 -10.931  0.00  0.00    +0.150 HD
BRANCH   7  11
ATOM     11  CA  ALA A   1     -50.167  -7.000  -9.301  0.00  0.00    +0.145 C 
ATOM     12  CB  ALA A   1     -50.529  -7.407  -7.882  0.00  0.00    +0.028 C 
BRANCH  11  13
ATOM     13  N   ALA A   1     -48.953  -6.203  -9.322  0.00  0.00    -0.238 NA
ATOM     14  H   ALA A   1     -48.887  -5.332  -8.758  0.00  0.00    +0.142 HD
ENDBRANCH  11  13
ENDBRANCH   7  11
ENDBRANCH   6   9
BRANCH   6  15
ATOM     15  CB  VAL A   2     -53.233  -6.541 -12.982  0.00  0.00    +0.027 C 
ATOM     16  CG2 VAL A   2     -52.008  -5.828 -13.565  0.00  0.00    +0.002 C 
ATOM     17  CG1 VAL A   2     -54.523  -6.003 -13.597  0.00  0.00    +0.002 C 
ENDBRANCH   6  15
ENDBRANCH   2   6
ENDBRANCH   1   3
BRANCH   1  18
ATOM     18  C   ILE A   3     -57.696  -6.429  -9.501  0.00  0.00    +0.241 C 
ATOM     19  N   ARG A   4     -58.759  -7.051  -8.940  0.00  0.00    -0.298 N 
ATOM     20  H   ARG A   4     -58.596  -7.949  -8.441  0.00  0.00    +0.150 HD
ATOM     21  O   ILE A   3     -57.775  -5.359 -10.113  0.00  0.00    -0.273 OA
BRANCH  19  22
ATOM     22  CA  ARG A   4     -60.133  -6.526  -8.998  0.00  0.00    +0.137 C 
BRANCH  22  23
ATOM     23  C   ARG A   4     -60.133  -5.231  -8.167  0.00  0.00    +0.227 C 
ATOM     24  O   ARG A   4     -59.503  -5.206  -7.110  0.00  0.00    -0.286 OA
ENDBRANCH  22  23
BRANCH  22  25
ATOM     25  CB  ARG A   4     -61.135  -7.530  -8.408  0.00  0.00    +0.031 C 
BRANCH  25  26
ATOM     26  CG  ARG A   4     -61.194  -8.866  -9.139  0.00  0.00    +0.045 C 
BRANCH  26  27
ATOM     27  CD  ARG A   4     -62.158  -9.807  -8.427  0.00  0.00    +0.174 C 
BRANCH  27  28
ATOM     28  NE  ARG A   4     -62.096 -11.185  -8.929  0.00  0.00    -0.265 N 
ATOM     29  HE  ARG A   4     -61.485 -11.859  -8.424  0.00  0.00    +0.259 HD
ATOM     30  CZ  ARG A   4     -62.768 -11.628  -9.985  0.00  0.00    +0.342 C 
ATOM     31  NH2 ARG A   4     -62.663 -12.898 -10.358  0.00  0.00    -0.292 N 
ATOM     32 HH21 ARG A   4     -62.053 -13.549  -9.823  0.00  0.00    +0.255 HD
ATOM     33 HH22 ARG A   4     -63.191 -13.242 -11.186  0.00  0.00    +0.255 HD
ATOM     34  NH1 ARG A   4     -63.548 -10.805 -10.681  0.00  0.00    -0.292 N 
ATOM     35 HH11 ARG A   4     -63.634  -9.808 -10.399  0.00  0.00    +0.255 HD
ATOM     36 HH12 ARG A   4     -64.071 -11.159 -11.507  0.00  0.00    +0.255 HD
ENDBRANCH  27  28
ENDBRANCH  26  27
ENDBRANCH  25  26
ENDBRANCH  22  25
ENDBRANCH  19  22
ENDBRANCH   1  18
BRANCH   1  37
ATOM     37  CB  ILE A   3     -55.993  -6.900  -7.684  0.00  0.00    +0.027 C 
ATOM     38  CG2 ILE A   3     -54.687  -7.637  -7.333  0.00  0.00    +0.002 C 
BRANCH  37  39
ATOM     39  CG1 ILE A   3     -55.955  -5.402  -7.251  0.00  0.00    +0.002 C 
ATOM     40  CD1 ILE A   3     -55.865  -5.099  -5.767  0.00  0.00    +0.000 C 
ENDBRANCH  37  39
ENDBRANCH   1  37
TORSDOF 15
REMARK  Name = ../refined-set-2016/3ta0/3ta0_pocket.pdb
REMARK  214 active torsions:
REMARK  status: ('A' for Active; 'I' for Inactive)
REMARK    1  A    between atoms: _1  and  _3
REMARK    2  A    between atoms: _3  and  _4
REMARK    3  A    between atoms: _7  and  _9
REMARK    4  A    between atoms: _9  and  _10
REMARK    5  A    between atoms: _9  and  _12
REMARK    6  A    between atoms: _15  and  _17
REMARK    7  A    between atoms: _17  and  _18
REMARK    8  A    between atoms: _17  and  _20
REMARK    9  A    between atoms: _20  and  _21
REMARK   10  A    between atoms: _24  and  _26
REMARK   11  A    between atoms: _26  and  _27
REMARK   12  A    between atoms: _26  and  _29
REMARK   13  A    between atoms: _29  and  _30
REMARK   14  A    between atoms: _30  and  _31
REMARK   15  A    between atoms: _31  and  _32
REMARK   16  A    between atoms: _41  and  _43
REMARK   17  A    between atoms: _43  and  _44
REMARK   18  A    between atoms: _43  and  _46
REMARK   19  A    between atoms: _49  and  _51
REMARK   20  A    between atoms: _51  and  _52
REMARK   21  A    between atoms: _51  and  _54
REMARK   22  A    between atoms: _54  and  _55
REMARK   23  A    between atoms: _55  and  _56
REMARK   24  A    between atoms: _56  and  _57
REMARK   25  A    between atoms: _57  and  _58
REMARK   26  A    between atoms: _62  and  _64
REMARK   27  A    between atoms: _64  and  _65
REMARK   28  A    between atoms: _67  and  _69
REMARK   29  A    between atoms: _69  and  _70
REMARK   30  A    between atoms: _69  and  _72
REMARK   31  A    between atoms: _72  and  _73
REMARK   32  A    between atoms: _73  and  _74
REMARK   33  A    between atoms: _74  and  _75
REMARK   34  A    between atoms: _84  and  _86
REMARK   35  A    between atoms: _86  and  _87
REMARK   36  A    between atoms: _89  and  _91
REMARK   37  A    between atoms: _91  and  _92
REMARK   38  A    between atoms: _91  and  _94
REMARK   39  A    between atoms: _94  and  _95
REMARK   40  A    between atoms: _95  and  _96
REMARK   41  A    between atoms: _99  and  _101
REMARK   42  A    between atoms: _101  and  _102
REMARK   43  A    between atoms: _101  and  _104
REMARK   44  A    between atoms: _104  and  _105
REMARK   45  A    between atoms: _105  and  _106
REMARK   46  A    between atoms: _111  and  _113
REMARK   47  A    between atoms: _113  and  _114
REMARK   48  A    between atoms: _113  and  _116
REMARK   49  A    between atoms: _116  and  _117
REMARK   50  A    between atoms: _120  and  _122
REMARK   51  A    between atoms: _122  and  _123
REMARK   52  A    between atoms: _122  and  _125
REMARK   53  A    between atoms: _125  and  _126
REMARK   54  A    between atoms: _129  and  _131
REMARK   55  A    between atoms: _131  and  _132
REMARK   56  A    between atoms: _131  and  _134
REMARK   57  A    between atoms: _134  and  _135
REMARK   58  A    between atoms: _138  and  _140
REMARK   59  A    between atoms: _140  and  _141
REMARK   60  A    between atoms: _140  and  _143
REMARK   61  A    between atoms: _143  and  _144
REMARK   62  A    between atoms: _144  and  _145
REMARK   63  A    between atoms: _150  and  _152
REMARK   64  A    between atoms: _152  and  _153
REMARK   65  A    between atoms: _152  and  _155
REMARK   66  A    between atoms: _155  and  _156
REMARK   67  A    between atoms: _156  and  _157
REMARK   68  A    between atoms: _157  and  _158
REMARK   69  A    between atoms: _158  and  _159
REMARK   70  A    between atoms: _163  and  _165
REMARK   71  A    between atoms: _165  and  _166
REMARK   72  A    between atoms: _165  and  _168
REMARK   73  A    between atoms: _168  and  _169
REMARK   74  A    between atoms: _172  and  _174
REMARK   75  A    between atoms: _174  and  _175
REMARK   76  A    between atoms: _174  and  _177
REMARK   77  A    between atoms: _177  and  _178
REMARK   78  A    between atoms: _178  and  _179
REMARK   79  A    between atoms: _179  and  _180
REMARK   80  A    between atoms: _180  and  _181
REMARK   81  A    between atoms: _185  and  _187
REMARK   82  A    between atoms: _187  and  _188
REMARK   83  A    between atoms: _187  and  _190
REMARK   84  A    between atoms: _190  and  _191
REMARK   85  A    between atoms: _194  and  _196
REMARK   86  A    between atoms: _196  and  _197
REMARK   87  A    between atoms: _199  and  _201
REMARK   88  A    between atoms: _201  and  _202
REMARK   89  A    between atoms: _201  and  _204
REMARK   90  A    between atoms: _204  and  _205
REMARK   91  A    between atoms: _205  and  _206
REMARK   92  A    between atoms: _206  and  _207
REMARK   93  A    between atoms: _207  and  _208
REMARK   94  A    between atoms: _212  and  _214
REMARK   95  A    between atoms: _214  and  _215
REMARK   96  A    between atoms: _214  and  _217
REMARK   97  A    between atoms: _217  and  _218
REMARK   98  A    between atoms: _224  and  _226
REMARK   99  A    between atoms: _226  and  _227
REMARK  100  A    between atoms: _229  and  _231
REMARK  101  A    between atoms: _231  and  _232
REMARK  102  A    between atoms: _231  and  _234
REMARK  103  A    between atoms: _234  and  _235
REMARK  104  A    between atoms: _238  and  _240
REMARK  105  A    between atoms: _240  and  _241
REMARK  106  A    between atoms: _243  and  _245
REMARK  107  A    between atoms: _245  and  _246
REMARK  108  A    between atoms: _245  and  _248
REMARK  109  A    between atoms: _248  and  _249
REMARK  110  A    between atoms: _249  and  _250
REMARK  111  A    between atoms: _250  and  _251
REMARK  112  A    between atoms: _260  and  _262
REMARK  113  A    between atoms: _262  and  _263
REMARK  114  A    between atoms: _262  and  _265
REMARK  115  A    between atoms: _265  and  _266
REMARK  116  A    between atoms: _269  and  _271
REMARK  117  A    between atoms: _271  and  _272
REMARK  118  A    between atoms: _271  and  _274
REMARK  119  A    between atoms: _274  and  _275
REMARK  120  A    between atoms: _281  and  _285
REMARK  121  A    between atoms: _285  and  _286
REMARK  122  A    between atoms: _285  and  _288
REMARK  123  A    between atoms: _288  and  _289
REMARK  124  A    between atoms: _289  and  _290
REMARK  125  A    between atoms: _292  and  _294
REMARK  126  A    between atoms: _294  and  _295
REMARK  127  A    between atoms: _294  and  _297
REMARK  128  A    between atoms: _297  and  _298
REMARK  129  A    between atoms: _298  and  _299
REMARK  130  A    between atoms: _299  and  _300
REMARK  131  A    between atoms: _300  and  _301
REMARK  132  A    between atoms: _305  and  _307
REMARK  133  A    between atoms: _307  and  _308
REMARK  134  A    between atoms: _307  and  _310
REMARK  135  A    between atoms: _310  and  _311
REMARK  136  A    between atoms: _311  and  _312
REMARK  137  A    between atoms: _314  and  _316
REMARK  138  A    between atoms: _316  and  _317
REMARK  139  A    between atoms: _316  and  _319
REMARK  140  A    between atoms: _322  and  _324
REMARK  141  A    between atoms: _324  and  _325
REMARK  142  A    between atoms: _324  and  _327
REMARK  143  A    between atoms: _327  and  _328
REMARK  144  A    between atoms: _334  and  _336
REMARK  145  A    between atoms: _336  and  _337
REMARK  146  A    between atoms: _336  and  _339
REMARK  147  A    between atoms: _342  and  _344
REMARK  148  A    between atoms: _344  and  _345
REMARK  149  A    between atoms: _347  and  _349
REMARK  150  A    between atoms: _349  and  _350
REMARK  151  A    between atoms: _349  and  _352
REMARK  152  A    between atoms: _352  and  _353
REMARK  153  A    between atoms: _353  and  _354
REMARK  154  A    between atoms: _356  and  _358
REMARK  155  A    between atoms: _358  and  _359
REMARK  156  A    between atoms: _358  and  _361
REMARK  157  A    between atoms: _361  and  _362
REMARK  158  A    between atoms: _365  and  _367
REMARK  159  A    between atoms: _367  and  _368
REMARK  160  A    between atoms: _367  and  _370
REMARK  161  A    between atoms: _373  and  _375
REMARK  162  A    between atoms: _375  and  _376
REMARK  163  A    between atoms: _375  and  _378
REMARK  164  A    between atoms: _381  and  _383
REMARK  165  A    between atoms: _383  and  _384
REMARK  166  A    between atoms: _383  and  _386
REMARK  167  A    between atoms: _386  and  _387
REMARK  168  A    between atoms: _387  and  _388
REMARK  169  A    between atoms: _391  and  _393
REMARK  170  A    between atoms: _393  and  _394
REMARK  171  A    between atoms: _393  and  _396
REMARK  172  A    between atoms: _399  and  _401
REMARK  173  A    between atoms: _401  and  _402
REMARK  174  A    between atoms: _401  and  _404
REMARK  175  A    between atoms: _407  and  _409
REMARK  176  A    between atoms: _409  and  _410
REMARK  177  A    between atoms: _409  and  _412
REMARK  178  A    between atoms: _415  and  _417
REMARK  179  A    between atoms: _417  and  _418
REMARK  180  A    between atoms: _417  and  _420
REMARK  181  A    between atoms: _420  and  _421
REMARK  182  A    between atoms: _423  and  _425
REMARK  183  A    between atoms: _425  and  _426
REMARK  184  A    between atoms: _425  and  _428
REMARK  185  A    between atoms: _428  and  _429
REMARK  186  A    between atoms: _431  and  _433
REMARK  187  A    between atoms: _433  and  _434
REMARK  188  A    between atoms: _433  and  _436
REMARK  189  A    between atoms: _439  and  _441
REMARK  190  A    between atoms: _441  and  _442
REMARK  191  A    between atoms: _441  and  _444
REMARK  192  A    between atoms: _444  and  _445
REMARK  193  A    between atoms: _445  and  _446
REMARK  194  A    between atoms: _446  and  _447
REMARK  195  A    between atoms: _447  and  _448
REMARK  196  A    between atoms: _452  and  _454
REMARK  197  A    between atoms: _454  and  _455
REMARK  198  A    between atoms: _454  and  _457
REMARK  199  A    between atoms: _457  and  _458
REMARK  200  A    between atoms: _461  and  _463
REMARK  201  A    between atoms: _463  and  _464
REMARK  202  A    between atoms: _463  and  _466
REMARK  203  A    between atoms: _466  and  _467
REMARK  204  A    between atoms: _467  and  _468
REMARK  205  A    between atoms: _468  and  _469
REMARK  206  A    between atoms: _478  and  _480
REMARK  207  A    between atoms: _480  and  _481
REMARK  208  A    between atoms: _480  and  _483
REMARK  209  A    between atoms: _483  and  _484
REMARK  210  A    between atoms: _487  and  _489
REMARK  211  A    between atoms: _489  and  _490
REMARK  212  A    between atoms: _489  and  _492
REMARK  213  A    between atoms: _492  and  _493
REMARK  214  A    between atoms: _493  and  _494
REMARK                            x       y       z     vdW  Elec       q    Type
REMARK                         _______ _______ _______ _____ _____    ______ ____
ROOT
ATOM      1  CA  ARG A   4     -58.814  -8.429 -20.253  0.00  0.00    +0.149 C 
ENDROOT
BRANCH   1   4
ATOM      2  C   GLY A   3     -58.718  -6.102 -19.381  0.00  0.00    +0.243 C 
ATOM      3  O   GLY A   3     -59.930  -5.999 -19.185  0.00  0.00    -0.273 OA
ATOM      4  N   ARG A   4     -58.141  -7.186 -19.917  0.00  0.00    -0.297 N 
ATOM      5  H   ARG A   4     -57.120  -7.133 -20.110  0.00  0.00    +0.150 HD
BRANCH   2   6
ATOM      6  CA  GLY A   3     -57.771  -4.978 -19.048  0.00  0.00    +0.176 C 
BRANCH   6   8
ATOM      7  C   LYS A   2     -57.635  -2.686 -18.336  0.00  0.00    +0.241 C 
ATOM      8  N   GLY A   3     -58.363  -3.772 -18.491  0.00  0.00    -0.295 N 
ATOM      9  H   GLY A   3     -59.365  -3.767 -18.214  0.00  0.00    +0.150 HD
ATOM     10  O   LYS A   2     -56.441  -2.637 -18.619  0.00  0.00    -0.273 OA
BRANCH   7  11
ATOM     11  CA  LYS A   2     -58.328  -1.460 -17.765  0.00  0.00    +0.149 C 
BRANCH  11  14
ATOM     12  C   VAL A   1     -57.389  -0.155 -15.870  0.00  0.00    +0.238 C 
ATOM     13  O   VAL A   1     -58.405  -0.262 -15.179  0.00  0.00    -0.274 OA
ATOM     14  N   LYS A   2     -57.299  -0.651 -17.106  0.00  0.00    -0.297 N 
ATOM     15  H   LYS A   2     -56.432  -0.448 -17.643  0.00  0.00    +0.150 HD
BRANCH  12  16
ATOM     16  CA  VAL A   1     -56.122   0.531 -15.315  0.00  0.00    +0.145 C 
BRANCH  16  17
ATOM     17  CB  VAL A   1     -54.888  -0.432 -15.356  0.00  0.00    +0.025 C 
ATOM     18  CG2 VAL A   1     -55.100  -1.667 -14.484  0.00  0.00    +0.002 C 
ATOM     19  CG1 VAL A   1     -53.584   0.281 -14.978  0.00  0.00    +0.002 C 
ENDBRANCH  16  17
BRANCH  16  20
ATOM     20  N   VAL A   1     -56.339   1.062 -13.970  0.00  0.00    -0.238 NA
ATOM     21  H   VAL A   1     -56.723   0.430 -13.239  0.00  0.00    +0.142 HD
ENDBRANCH  16  20
ENDBRANCH  12  16
ENDBRANCH  11  14
BRANCH  11  22
ATOM     22  CB  LYS A   2     -59.066  -0.670 -18.862  0.00  0.00    +0.029 C 
BRANCH  22  23
ATOM     23  CG  LYS A   2     -60.128   0.270 -18.309  0.00  0.00    +0.000 C 
BRANCH  23  24
ATOM     24  CD  LYS A   2     -60.714   1.128 -19.401  0.00  0.00    -0.024 C 
BRANCH  24  25
ATOM     25  CE  LYS A   2     -61.805   2.017 -18.887  0.00  0.00    -0.086 C 
BRANCH  25  26
ATOM     26  NZ  LYS A   2     -62.298   2.915 -19.964  0.00  0.00    +0.380 N 
ATOM     27  HZ1 LYS A   2     -63.053   3.523 -19.588  0.00  0.00    -0.089 HD
ATOM     28  HZ2 LYS A   2     -61.514   3.506 -20.307  0.00  0.00    -0.089 HD
ATOM     29  HZ3 LYS A   2     -62.670   2.342 -20.748  0.00  0.00    -0.089 HD
ENDBRANCH  25  26
ENDBRANCH  24  25
ENDBRANCH  23  24
ENDBRANCH  22  23
ENDBRANCH  11  22
ENDBRANCH   7  11
ENDBRANCH   6   8
ENDBRANCH   2   6
ENDBRANCH   1   4
BRANCH   1  30
ATOM     30  C   ARG A   4     -57.822  -9.599 -20.184  0.00  0.00    +0.241 C 
ATOM     31  N   GLY A   5     -58.365 -10.811 -20.093  0.00  0.00    -0.295 N 
ATOM     32  H   GLY A   5     -59.402 -10.858 -20.029  0.00  0.00    +0.150 HD
ATOM     33  O   ARG A   4     -56.609  -9.381 -20.155  0.00  0.00    -0.273 OA
BRANCH  31  34
ATOM     34  CA  GLY A   5     -57.644 -12.084 -20.074  0.00  0.00    +0.176 C 
BRANCH  34  35
ATOM     35  C   GLY A   5     -58.304 -13.008 -21.075  0.00  0.00    +0.243 C 
ATOM     36  N   GLU A   6     -58.403 -14.311 -20.766  0.00  0.00    -0.297 N 
ATOM     37  H   GLU A   6     -57.945 -14.666 -19.902  0.00  0.00    +0.150 HD
ATOM     38  O   GLY A   5     -58.776 -12.541 -22.117  0.00  0.00    -0.273 OA
BRANCH  36  39
ATOM     39  CA  GLU A   6     -59.146 -15.247 -21.623  0.00  0.00    +0.149 C 
BRANCH  39  40
ATOM     40  C   GLU A   6     -60.598 -15.329 -21.051  0.00  0.00    +0.241 C 
ATOM     41  O   GLU A   6     -61.035 -16.364 -20.534  0.00  0.00    -0.273 OA
ATOM     42  N   GLN A   7     -61.299 -14.173 -21.080  0.00  0.00    -0.298 N 
ATOM     43  H   GLN A   7     -60.836 -13.348 -21.511  0.00  0.00    +0.150 HD
BRANCH  42  44
ATOM     44  CA  GLN A   7     -62.655 -13.981 -20.557  0.00  0.00    +0.137 C 
BRANCH  44  45
ATOM     45  C   GLN A   7     -63.610 -13.465 -21.631  0.00  0.00    +0.227 C 
ATOM     46  O   GLN A   7     -63.722 -14.062 -22.700  0.00  0.00    -0.286 OA
ENDBRANCH  44  45
BRANCH  44  47
ATOM     47  CB  GLN A   7     -62.660 -13.048 -19.318  0.00  0.00    +0.037 C 
BRANCH  47  48
ATOM     48  CG  GLN A   7     -61.574 -11.954 -19.278  0.00  0.00    +0.087 C 
BRANCH  48  49
ATOM     49  CD  GLN A   7     -61.878 -10.741 -20.125  0.00  0.00    +0.219 C 
ATOM     50  NE2 GLN A   7     -62.035  -9.595 -19.481  0.00  0.00    -0.329 N 
ATOM     51 HE21 GLN A   7     -61.999  -9.573 -18.442  0.00  0.00    +0.145 HD
ATOM     52 HE22 GLN A   7     -62.194  -8.716 -20.014  0.00  0.00    +0.145 HD
ATOM     53  OE1 GLN A   7     -61.915 -10.799 -21.357  0.00  0.00    -0.275 OA
ENDBRANCH  48  49
ENDBRANCH  47  48
ENDBRANCH  44  47
ENDBRANCH  42  44
ENDBRANCH  39  40
BRANCH  39  54
ATOM     54  CB  GLU A   6     -58.447 -16.609 -21.696  0.00  0.00    +0.041 C 
BRANCH  54  55
ATOM     55  CG  GLU A   6     -58.916 -17.462 -22.863  0.00  0.00    +0.116 C 
BRANCH  55  56
ATOM     56  CD  GLU A   6     -58.223 -18.805 -22.939  0.00  0.00    +0.365 C 
ATOM     57  OE2 GLU A   6     -58.502 -19.666 -22.073  0.00  0.00    -0.246 OA
ATOM     58  OE1 GLU A   6     -57.383 -18.990 -23.850  0.00  0.00    -0.246 OA
ENDBRANCH  55  56
ENDBRANCH  54  55
ENDBRANCH  39  54
ENDBRANCH  36  39
ENDBRANCH  34  35
ENDBRANCH  31  34
ENDBRANCH   1  30
BRANCH   1  59
ATOM     59  CB  ARG A   4     -59.544  -8.350 -21.617  0.00  0.00    +0.033 C 
BRANCH  59  60
ATOM     60  CG  ARG A   4     -58.652  -8.227 -22.856  0.00  0.00    +0.045 C 
BRANCH  60  61
ATOM     61  CD  ARG A   4     -59.410  -8.677 -24.076  0.00  0.00    +0.174 C 
BRANCH  61  62
ATOM     62  NE  ARG A   4     -58.693  -8.419 -25.320  0.00  0.00    -0.265 N 
ATOM     63  HE  ARG A   4     -57.691  -8.146 -25.257  0.00  0.00    +0.259 HD
ATOM     64  CZ  ARG A   4     -59.240  -8.511 -26.532  0.00  0.00    +0.342 C 
ATOM     65  NH2 ARG A   4     -60.520  -8.839 -26.668  0.00  0.00    -0.292 N 
ATOM     66 HH21 ARG A   4     -61.101  -9.026 -25.826  0.00  0.00    +0.255 HD
ATOM     67 HH22 ARG A   4     -60.941  -8.909 -27.616  0.00  0.00    +0.255 HD
ATOM     68  NH1 ARG A   4     -58.513  -8.275 -27.614  0.00  0.00    -0.292 N 
ATOM     69 HH11 ARG A   4     -57.510  -8.016 -27.520  0.00  0.00    +0.255 HD
ATOM     70 HH12 ARG A   4     -58.945  -8.348 -28.557  0.00  0.00    +0.255 HD
ENDBRANCH  61  62
ENDBRANCH  60  61
ENDBRANCH  59  60
ENDBRANCH   1  59
TORSDOF 30
REMARK  Name = ../refined-set-2016/3ta0/3ta0_pocket.pdb
REMARK  214 active torsions:
REMARK  status: ('A' for Active; 'I' for Inactive)
REMARK    1  A    between atoms: _1  and  _3
REMARK    2  A    between atoms: _3  and  _4
REMARK    3  A    between atoms: _7  and  _9
REMARK    4  A    between atoms: _9  and  _10
REMARK    5  A    between atoms: _9  and  _12
REMARK    6  A    between atoms: _15  and  _17
REMARK    7  A    between atoms: _17  and  _18
REMARK    8  A    between atoms: _17  and  _20
REMARK    9  A    between atoms: _20  and  _21
REMARK   10  A    between atoms: _24  and  _26
REMARK   11  A    between atoms: _26  and  _27
REMARK   12  A    between atoms: _26  and  _29
REMARK   13  A    between atoms: _29  and  _30
REMARK   14  A    between atoms: _30  and  _31
REMARK   15  A    between atoms: _31  and  _32
REMARK   16  A    between atoms: _41  and  _43
REMARK   17  A    between atoms: _43  and  _44
REMARK   18  A    between atoms: _43  and  _46
REMARK   19  A    between atoms: _49  and  _51
REMARK   20  A    between atoms: _51  and  _52
REMARK   21  A    between atoms: _51  and  _54
REMARK   22  A    between atoms: _54  and  _55
REMARK   23  A    between atoms: _55  and  _56
REMARK   24  A    between atoms: _56  and  _57
REMARK   25  A    between atoms: _57  and  _58
REMARK   26  A    between atoms: _62  and  _64
REMARK   27  A    between atoms: _64  and  _65
REMARK   28  A    between atoms: _67  and  _69
REMARK   29  A    between atoms: _69  and  _70
REMARK   30  A    between atoms: _69  and  _72
REMARK   31  A    between atoms: _72  and  _73
REMARK   32  A    between atoms: _73  and  _74
REMARK   33  A    between atoms: _74  and  _75
REMARK   34  A    between atoms: _84  and  _86
REMARK   35  A    between atoms: _86  and  _87
REMARK   36  A    between atoms: _89  and  _91
REMARK   37  A    between atoms: _91  and  _92
REMARK   38  A    between atoms: _91  and  _94
REMARK   39  A    between atoms: _94  and  _95
REMARK   40  A    between atoms: _95  and  _96
REMARK   41  A    between atoms: _99  and  _101
REMARK   42  A    between atoms: _101  and  _102
REMARK   43  A    between atoms: _101  and  _104
REMARK   44  A    between atoms: _104  and  _105
REMARK   45  A    between atoms: _105  and  _106
REMARK   46  A    between atoms: _111  and  _113
REMARK   47  A    between atoms: _113  and  _114
REMARK   48  A    between atoms: _113  and  _116
REMARK   49  A    between atoms: _116  and  _117
REMARK   50  A    between atoms: _120  and  _122
REMARK   51  A    between atoms: _122  and  _123
REMARK   52  A    between atoms: _122  and  _125
REMARK   53  A    between atoms: _125  and  _126
REMARK   54  A    between atoms: _129  and  _131
REMARK   55  A    between atoms: _131  and  _132
REMARK   56  A    between atoms: _131  and  _134
REMARK   57  A    between atoms: _134  and  _135
REMARK   58  A    between atoms: _138  and  _140
REMARK   59  A    between atoms: _140  and  _141
REMARK   60  A    between atoms: _140  and  _143
REMARK   61  A    between atoms: _143  and  _144
REMARK   62  A    between atoms: _144  and  _145
REMARK   63  A    between atoms: _150  and  _152
REMARK   64  A    between atoms: _152  and  _153
REMARK   65  A    between atoms: _152  and  _155
REMARK   66  A    between atoms: _155  and  _156
REMARK   67  A    between atoms: _156  and  _157
REMARK   68  A    between atoms: _157  and  _158
REMARK   69  A    between atoms: _158  and  _159
REMARK   70  A    between atoms: _163  and  _165
REMARK   71  A    between atoms: _165  and  _166
REMARK   72  A    between atoms: _165  and  _168
REMARK   73  A    between atoms: _168  and  _169
REMARK   74  A    between atoms: _172  and  _174
REMARK   75  A    between atoms: _174  and  _175
REMARK   76  A    between atoms: _174  and  _177
REMARK   77  A    between atoms: _177  and  _178
REMARK   78  A    between atoms: _178  and  _179
REMARK   79  A    between atoms: _179  and  _180
REMARK   80  A    between atoms: _180  and  _181
REMARK   81  A    between atoms: _185  and  _187
REMARK   82  A    between atoms: _187  and  _188
REMARK   83  A    between atoms: _187  and  _190
REMARK   84  A    between atoms: _190  and  _191
REMARK   85  A    between atoms: _194  and  _196
REMARK   86  A    between atoms: _196  and  _197
REMARK   87  A    between atoms: _199  and  _201
REMARK   88  A    between atoms: _201  and  _202
REMARK   89  A    between atoms: _201  and  _204
REMARK   90  A    between atoms: _204  and  _205
REMARK   91  A    between atoms: _205  and  _206
REMARK   92  A    between atoms: _206  and  _207
REMARK   93  A    between atoms: _207  and  _208
REMARK   94  A    between atoms: _212  and  _214
REMARK   95  A    between atoms: _214  and  _215
REMARK   96  A    between atoms: _214  and  _217
REMARK   97  A    between atoms: _217  and  _218
REMARK   98  A    between atoms: _224  and  _226
REMARK   99  A    between atoms: _226  and  _227
REMARK  100  A    between atoms: _229  and  _231
REMARK  101  A    between atoms: _231  and  _232
REMARK  102  A    between atoms: _231  and  _234
REMARK  103  A    between atoms: _234  and  _235
REMARK  104  A    between atoms: _238  and  _240
REMARK  105  A    between atoms: _240  and  _241
REMARK  106  A    between atoms: _243  and  _245
REMARK  107  A    between atoms: _245  and  _246
REMARK  108  A    between atoms: _245  and  _248
REMARK  109  A    between atoms: _248  and  _249
REMARK  110  A    between atoms: _249  and  _250
REMARK  111  A    between atoms: _250  and  _251
REMARK  112  A    between atoms: _260  and  _262
REMARK  113  A    between atoms: _262  and  _263
REMARK  114  A    between atoms: _262  and  _265
REMARK  115  A    between atoms: _265  and  _266
REMARK  116  A    between atoms: _269  and  _271
REMARK  117  A    between atoms: _271  and  _272
REMARK  118  A    between atoms: _271  and  _274
REMARK  119  A    between atoms: _274  and  _275
REMARK  120  A    between atoms: _281  and  _285
REMARK  121  A    between atoms: _285  and  _286
REMARK  122  A    between atoms: _285  and  _288
REMARK  123  A    between atoms: _288  and  _289
REMARK  124  A    between atoms: _289  and  _290
REMARK  125  A    between atoms: _292  and  _294
REMARK  126  A    between atoms: _294  and  _295
REMARK  127  A    between atoms: _294  and  _297
REMARK  128  A    between atoms: _297  and  _298
REMARK  129  A    between atoms: _298  and  _299
REMARK  130  A    between atoms: _299  and  _300
REMARK  131  A    between atoms: _300  and  _301
REMARK  132  A    between atoms: _305  and  _307
REMARK  133  A    between atoms: _307  and  _308
REMARK  134  A    between atoms: _307  and  _310
REMARK  135  A    between atoms: _310  and  _311
REMARK  136  A    between atoms: _311  and  _312
REMARK  137  A    between atoms: _314  and  _316
REMARK  138  A    between atoms: _316  and  _317
REMARK  139  A    between atoms: _316  and  _319
REMARK  140  A    between atoms: _322  and  _324
REMARK  141  A    between atoms: _324  and  _325
REMARK  142  A    between atoms: _324  and  _327
REMARK  143  A    between atoms: _327  and  _328
REMARK  144  A    between atoms: _334  and  _336
REMARK  145  A    between atoms: _336  and  _337
REMARK  146  A    between atoms: _336  and  _339
REMARK  147  A    between atoms: _342  and  _344
REMARK  148  A    between atoms: _344  and  _345
REMARK  149  A    between atoms: _347  and  _349
REMARK  150  A    between atoms: _349  and  _350
REMARK  151  A    between atoms: _349  and  _352
REMARK  152  A    between atoms: _352  and  _353
REMARK  153  A    between atoms: _353  and  _354
REMARK  154  A    between atoms: _356  and  _358
REMARK  155  A    between atoms: _358  and  _359
REMARK  156  A    between atoms: _358  and  _361
REMARK  157  A    between atoms: _361  and  _362
REMARK  158  A    between atoms: _365  and  _367
REMARK  159  A    between atoms: _367  and  _368
REMARK  160  A    between atoms: _367  and  _370
REMARK  161  A    between atoms: _373  and  _375
REMARK  162  A    between atoms: _375  and  _376
REMARK  163  A    between atoms: _375  and  _378
REMARK  164  A    between atoms: _381  and  _383
REMARK  165  A    between atoms: _383  and  _384
REMARK  166  A    between atoms: _383  and  _386
REMARK  167  A    between atoms: _386  and  _387
REMARK  168  A    between atoms: _387  and  _388
REMARK  169  A    between atoms: _391  and  _393
REMARK  170  A    between atoms: _393  and  _394
REMARK  171  A    between atoms: _393  and  _396
REMARK  172  A    between atoms: _399  and  _401
REMARK  173  A    between atoms: _401  and  _402
REMARK  174  A    between atoms: _401  and  _404
REMARK  175  A    between atoms: _407  and  _409
REMARK  176  A    between atoms: _409  and  _410
REMARK  177  A    between atoms: _409  and  _412
REMARK  178  A    between atoms: _415  and  _417
REMARK  179  A    between atoms: _417  and  _418
REMARK  180  A    between atoms: _417  and  _420
REMARK  181  A    between atoms: _420  and  _421
REMARK  182  A    between atoms: _423  and  _425
REMARK  183  A    between atoms: _425  and  _426
REMARK  184  A    between atoms: _425  and  _428
REMARK  185  A    between atoms: _428  and  _429
REMARK  186  A    between atoms: _431  and  _433
REMARK  187  A    between atoms: _433  and  _434
REMARK  188  A    between atoms: _433  and  _436
REMARK  189  A    between atoms: _439  and  _441
REMARK  190  A    between atoms: _441  and  _442
REMARK  191  A    between atoms: _441  and  _444
REMARK  192  A    between atoms: _444  and  _445
REMARK  193  A    between atoms: _445  and  _446
REMARK  194  A    between atoms: _446  and  _447
REMARK  195  A    between atoms: _447  and  _448
REMARK  196  A    between atoms: _452  and  _454
REMARK  197  A    between atoms: _454  and  _455
REMARK  198  A    between atoms: _454  and  _457
REMARK  199  A    between atoms: _457  and  _458
REMARK  200  A    between atoms: _461  and  _463
REMARK  201  A    between atoms: _463  and  _464
REMARK  202  A    between atoms: _463  and  _466
REMARK  203  A    between atoms: _466  and  _467
REMARK  204  A    between atoms: _467  and  _468
REMARK  205  A    between atoms: _468  and  _469
REMARK  206  A    between atoms: _478  and  _480
REMARK  207  A    between atoms: _480  and  _481
REMARK  208  A    between atoms: _480  and  _483
REMARK  209  A    between atoms: _483  and  _484
REMARK  210  A    between atoms: _487  and  _489
REMARK  211  A    between atoms: _489  and  _490
REMARK  212  A    between atoms: _489  and  _492
REMARK  213  A    between atoms: _492  and  _493
REMARK  214  A    between atoms: _493  and  _494
REMARK                            x       y       z     vdW  Elec       q    Type
REMARK                         _______ _______ _______ _____ _____    ______ ____
ROOT
ATOM      1  CA  GLN A   4     -61.749  -1.771 -14.857  0.00  0.00    +0.149 C 
ENDROOT
BRANCH   1   3
ATOM      2  C   LEU A   3     -61.936  -3.292 -16.799  0.00  0.00    +0.241 C 
ATOM      3  N   GLN A   4     -62.494  -2.506 -15.867  0.00  0.00    -0.297 N 
ATOM      4  H   GLN A   4     -63.530  -2.416 -15.866  0.00  0.00    +0.150 HD
ATOM      5  O   LEU A   3     -60.721  -3.477 -16.890  0.00  0.00    -0.273 OA
BRANCH   2   6
ATOM      6  CA  LEU A   3     -62.896  -3.979 -17.770  0.00  0.00    +0.149 C 
BRANCH   6   8
ATOM      7  C   LEU A   2     -62.490  -3.614 -20.177  0.00  0.00    +0.241 C 
ATOM      8  N   LEU A   3     -62.245  -4.270 -19.045  0.00  0.00    -0.297 N 
ATOM      9  H   LEU A   3     -61.545  -5.039 -19.070  0.00  0.00    +0.150 HD
ATOM     10  O   LEU A   2     -63.297  -2.689 -20.261  0.00  0.00    -0.273 OA
BRANCH   7  11
ATOM     11  CA  LEU A   2     -61.727  -4.085 -21.406  0.00  0.00    +0.149 C 
BRANCH  11  14
ATOM     12  C   ASP A   1     -63.107  -5.942 -22.284  0.00  0.00    +0.239 C 
ATOM     13  O   ASP A   1     -62.885  -6.660 -21.306  0.00  0.00    -0.274 OA
ATOM     14  N   LEU A   2     -62.612  -4.696 -22.402  0.00  0.00    -0.297 N 
ATOM     15  H   LEU A   2     -62.870  -4.139 -23.241  0.00  0.00    +0.150 HD
BRANCH  12  16
ATOM     16  CA  ASP A   1     -63.943  -6.498 -23.455  0.00  0.00    +0.156 C 
BRANCH  16  17
ATOM     17  N   ASP A   1     -64.779  -5.506 -24.120  0.00  0.00    -0.238 NA
ATOM     18  H   ASP A   1     -64.385  -5.038 -24.961  0.00  0.00    +0.142 HD
ENDBRANCH  16  17
BRANCH  16  19
ATOM     19  CB  ASP A   1     -63.019  -7.169 -24.489  0.00  0.00    +0.140 C 
BRANCH  19  20
ATOM     20  CG  ASP A   1     -63.630  -8.379 -25.156  0.00  0.00    +0.367 C 
ATOM     21  OD2 ASP A   1     -63.381  -9.512 -24.677  0.00  0.00    -0.246 OA
ATOM     22  OD1 ASP A   1     -64.356  -8.200 -26.159  0.00  0.00    -0.246 OA
ENDBRANCH  19  20
ENDBRANCH  16  19
ENDBRANCH  12  16
ENDBRANCH  11  14
BRANCH  11  23
ATOM     23  CB  LEU A   2     -60.910  -2.939 -22.040  0.00  0.00    +0.029 C 
BRANCH  23  24
ATOM     24  CG  LEU A   2     -59.468  -3.176 -22.545  0.00  0.00    +0.002 C 
ATOM     25  CD2 LEU A   2     -59.202  -4.592 -23.015  0.00  0.00    +0.000 C 
ATOM     26  CD1 LEU A   2     -59.118  -2.195 -23.617  0.00  0.00    +0.000 C 
ENDBRANCH  23  24
ENDBRANCH  11  23
ENDBRANCH   7  11
ENDBRANCH   6   8
BRANCH   6  27
ATOM     27  CB  LEU A   3     -63.405  -5.300 -17.155  0.00  0.00    +0.029 C 
BRANCH  27  28
ATOM     28  CG  LEU A   3     -64.819  -5.847 -17.484  0.00  0.00    +0.002 C 
ATOM     29  CD2 LEU A   3     -64.831  -7.361 -17.401  0.00  0.00    +0.000 C 
ATOM     30  CD1 LEU A   3     -65.375  -5.397 -18.831  0.00  0.00    +0.000 C 
ENDBRANCH  27  28
ENDBRANCH   6  27
ENDBRANCH   2   6
ENDBRANCH   1   3
BRANCH   1  31
ATOM     31  C   GLN A   4     -60.979  -2.677 -13.906  0.00  0.00    +0.241 C 
ATOM     32  O   GLN A   4     -61.539  -3.621 -13.353  0.00  0.00    -0.273 OA
ATOM     33  N   LYS A   5     -59.673  -2.412 -13.765  0.00  0.00    -0.297 N 
ATOM     34  H   LYS A   5     -59.268  -1.631 -14.320  0.00  0.00    +0.150 HD
BRANCH  33  35
ATOM     35  CA  LYS A   5     -58.788  -3.155 -12.879  0.00  0.00    +0.149 C 
BRANCH  35  36
ATOM     36  C   LYS A   5     -57.937  -2.185 -12.090  0.00  0.00    +0.241 C 
ATOM     37  N   THR A   6     -57.199  -2.713 -11.113  0.00  0.00    -0.295 N 
ATOM     38  H   THR A   6     -57.257  -3.736 -10.937  0.00  0.00    +0.150 HD
ATOM     39  O   LYS A   5     -57.943  -0.971 -12.358  0.00  0.00    -0.273 OA
BRANCH  37  40
ATOM     40  CA  THR A   6     -56.314  -1.907 -10.283  0.00  0.00    +0.176 C 
BRANCH  40  41
ATOM     41  C   THR A   6     -54.935  -2.525 -10.296  0.00  0.00    +0.243 C 
ATOM     42  O   THR A   6     -54.799  -3.753 -10.143  0.00  0.00    -0.273 OA
ATOM     43  N   LYS A   7     -53.933  -1.676 -10.545  0.00  0.00    -0.298 N 
ATOM     44  H   LYS A   7     -54.167  -0.679 -10.728  0.00  0.00    +0.150 HD
BRANCH  43  45
ATOM     45  CA  LYS A   7     -52.527  -2.071 -10.574  0.00  0.00    +0.137 C 
BRANCH  45  46
ATOM     46  C   LYS A   7     -51.826  -1.592  -9.300  0.00  0.00    +0.227 C 
ATOM     47  O   LYS A   7     -51.869  -0.396  -8.970  0.00  0.00    -0.286 OA
ENDBRANCH  45  46
BRANCH  45  48
ATOM     48  CB  LYS A   7     -51.802  -1.539 -11.829  0.00  0.00    +0.028 C 
BRANCH  48  49
ATOM     49  CG  LYS A   7     -50.322  -1.969 -11.889  0.00  0.00    -0.000 C 
BRANCH  49  50
ATOM     50  CD  LYS A   7     -49.483  -1.124 -12.812  0.00  0.00    -0.024 C 
BRANCH  50  51
ATOM     51  CE  LYS A   7     -49.404  -1.686 -14.194  0.00  0.00    -0.086 C 
BRANCH  51  52
ATOM     52  NZ  LYS A   7     -48.507  -0.854 -15.029  0.00  0.00    +0.380 N 
ATOM     53  HZ1 LYS A   7     -47.556  -0.843 -14.609  0.00  0.00    -0.089 HD
ATOM     54  HZ2 LYS A   7     -48.879   0.116 -15.074  0.00  0.00    -0.089 HD
ATOM     55  HZ3 LYS A   7     -48.459  -1.253 -15.988  0.00  0.00    -0.089 HD
ENDBRANCH  51  52
ENDBRANCH  50  51
ENDBRANCH  49  50
ENDBRANCH  48  49
ENDBRANCH  45  48
ENDBRANCH  43  45
ENDBRANCH  40  41
BRANCH  40  56
ATOM     56  CB  THR A   6     -56.935  -1.720  -8.903  0.00  0.00    +0.137 C 
ATOM     57  CG2 THR A   6     -55.949  -1.211  -7.866  0.00  0.00    +0.034 C 
BRANCH  56  58
ATOM     58  OG1 THR A   6     -57.994  -0.785  -9.046  0.00  0.00    -0.382 OA
ATOM     59  HG1 THR A   6     -57.633   0.072  -9.386  0.00  0.00    +0.210 HD
ENDBRANCH  56  58
ENDBRANCH  40  56
ENDBRANCH  37  40
ENDBRANCH  35  36
BRANCH  35  60
ATOM     60  CB  LYS A   5     -57.885  -4.137 -13.677  0.00  0.00    +0.029 C 
BRANCH  60  61
ATOM     61  CG  LYS A   5     -58.622  -5.265 -14.400  0.00  0.00    +0.000 C 
BRANCH  61  62
ATOM     62  CD  LYS A   5     -59.133  -6.358 -13.464  0.00  0.00    -0.024 C 
BRANCH  62  63
ATOM     63  CE  LYS A   5     -60.204  -7.176 -14.161  0.00  0.00    -0.086 C 
BRANCH  63  64
ATOM     64  NZ  LYS A   5     -60.593  -8.394 -13.397  0.00  0.00    +0.380 N 
ATOM     65  HZ1 LYS A   5     -60.963  -8.114 -12.466  0.00  0.00    -0.089 HD
ATOM     66  HZ2 LYS A   5     -59.760  -9.004 -13.271  0.00  0.00    -0.089 HD
ATOM     67  HZ3 LYS A   5     -61.327  -8.911 -13.922  0.00  0.00    -0.089 HD
ENDBRANCH  63  64
ENDBRANCH  62  63
ENDBRANCH  61  62
ENDBRANCH  60  61
ENDBRANCH  35  60
ENDBRANCH  33  35
ENDBRANCH   1  31
BRANCH   1  68
ATOM     68  CB  GLN A   4     -62.653  -0.797 -14.086  0.00  0.00    +0.039 C 
BRANCH  68  69
ATOM     69  CG  GLN A   4     -62.849   0.528 -14.817  0.00  0.00    +0.087 C 
BRANCH  69  70
ATOM     70  CD  GLN A   4     -63.854   1.417 -14.133  0.00  0.00    +0.219 C 
ATOM     71  NE2 GLN A   4     -63.395   2.565 -13.674  0.00  0.00    -0.329 N 
ATOM     72 HE21 GLN A   4     -64.042   3.238 -13.215  0.00  0.00    +0.145 HD
ATOM     73 HE22 GLN A   4     -62.386   2.798 -13.771  0.00  0.00    +0.145 HD
ATOM     74  OE1 GLN A   4     -65.047   1.106 -14.036  0.00  0.00    -0.275 OA
ENDBRANCH  69  70
ENDBRANCH  68  69
ENDBRANCH   1  68
TORSDOF 35
REMARK  Name = ../refined-set-2016/3ta0/3ta0_pocket.pdb
REMARK  214 active torsions:
REMARK  status: ('A' for Active; 'I' for Inactive)
REMARK    1  A    between atoms: _1  and  _3
REMARK    2  A    between atoms: _3  and  _4
REMARK    3  A    between atoms: _7  and  _9
REMARK    4  A    between atoms: _9  and  _10
REMARK    5  A    between atoms: _9  and  _12
REMARK    6  A    between atoms: _15  and  _17
REMARK    7  A    between atoms: _17  and  _18
REMARK    8  A    between atoms: _17  and  _20
REMARK    9  A    between atoms: _20  and  _21
REMARK   10  A    between atoms: _24  and  _26
REMARK   11  A    between atoms: _26  and  _27
REMARK   12  A    between atoms: _26  and  _29
REMARK   13  A    between atoms: _29  and  _30
REMARK   14  A    between atoms: _30  and  _31
REMARK   15  A    between atoms: _31  and  _32
REMARK   16  A    between atoms: _41  and  _43
REMARK   17  A    between atoms: _43  and  _44
REMARK   18  A    between atoms: _43  and  _46
REMARK   19  A    between atoms: _49  and  _51
REMARK   20  A    between atoms: _51  and  _52
REMARK   21  A    between atoms: _51  and  _54
REMARK   22  A    between atoms: _54  and  _55
REMARK   23  A    between atoms: _55  and  _56
REMARK   24  A    between atoms: _56  and  _57
REMARK   25  A    between atoms: _57  and  _58
REMARK   26  A    between atoms: _62  and  _64
REMARK   27  A    between atoms: _64  and  _65
REMARK   28  A    between atoms: _67  and  _69
REMARK   29  A    between atoms: _69  and  _70
REMARK   30  A    between atoms: _69  and  _72
REMARK   31  A    between atoms: _72  and  _73
REMARK   32  A    between atoms: _73  and  _74
REMARK   33  A    between atoms: _74  and  _75
REMARK   34  A    between atoms: _84  and  _86
REMARK   35  A    between atoms: _86  and  _87
REMARK   36  A    between atoms: _89  and  _91
REMARK   37  A    between atoms: _91  and  _92
REMARK   38  A    between atoms: _91  and  _94
REMARK   39  A    between atoms: _94  and  _95
REMARK   40  A    between atoms: _95  and  _96
REMARK   41  A    between atoms: _99  and  _101
REMARK   42  A    between atoms: _101  and  _102
REMARK   43  A    between atoms: _101  and  _104
REMARK   44  A    between atoms: _104  and  _105
REMARK   45  A    between atoms: _105  and  _106
REMARK   46  A    between atoms: _111  and  _113
REMARK   47  A    between atoms: _113  and  _114
REMARK   48  A    between atoms: _113  and  _116
REMARK   49  A    between atoms: _116  and  _117
REMARK   50  A    between atoms: _120  and  _122
REMARK   51  A    between atoms: _122  and  _123
REMARK   52  A    between atoms: _122  and  _125
REMARK   53  A    between atoms: _125  and  _126
REMARK   54  A    between atoms: _129  and  _131
REMARK   55  A    between atoms: _131  and  _132
REMARK   56  A    between atoms: _131  and  _134
REMARK   57  A    between atoms: _134  and  _135
REMARK   58  A    between atoms: _138  and  _140
REMARK   59  A    between atoms: _140  and  _141
REMARK   60  A    between atoms: _140  and  _143
REMARK   61  A    between atoms: _143  and  _144
REMARK   62  A    between atoms: _144  and  _145
REMARK   63  A    between atoms: _150  and  _152
REMARK   64  A    between atoms: _152  and  _153
REMARK   65  A    between atoms: _152  and  _155
REMARK   66  A    between atoms: _155  and  _156
REMARK   67  A    between atoms: _156  and  _157
REMARK   68  A    between atoms: _157  and  _158
REMARK   69  A    between atoms: _158  and  _159
REMARK   70  A    between atoms: _163  and  _165
REMARK   71  A    between atoms: _165  and  _166
REMARK   72  A    between atoms: _165  and  _168
REMARK   73  A    between atoms: _168  and  _169
REMARK   74  A    between atoms: _172  and  _174
REMARK   75  A    between atoms: _174  and  _175
REMARK   76  A    between atoms: _174  and  _177
REMARK   77  A    between atoms: _177  and  _178
REMARK   78  A    between atoms: _178  and  _179
REMARK   79  A    between atoms: _179  and  _180
REMARK   80  A    between atoms: _180  and  _181
REMARK   81  A    between atoms: _185  and  _187
REMARK   82  A    between atoms: _187  and  _188
REMARK   83  A    between atoms: _187  and  _190
REMARK   84  A    between atoms: _190  and  _191
REMARK   85  A    between atoms: _194  and  _196
REMARK   86  A    between atoms: _196  and  _197
REMARK   87  A    between atoms: _199  and  _201
REMARK   88  A    between atoms: _201  and  _202
REMARK   89  A    between atoms: _201  and  _204
REMARK   90  A    between atoms: _204  and  _205
REMARK   91  A    between atoms: _205  and  _206
REMARK   92  A    between atoms: _206  and  _207
REMARK   93  A    between atoms: _207  and  _208
REMARK   94  A    between atoms: _212  and  _214
REMARK   95  A    between atoms: _214  and  _215
REMARK   96  A    between atoms: _214  and  _217
REMARK   97  A    between atoms: _217  and  _218
REMARK   98  A    between atoms: _224  and  _226
REMARK   99  A    between atoms: _226  and  _227
REMARK  100  A    between atoms: _229  and  _231
REMARK  101  A    between atoms: _231  and  _232
REMARK  102  A    between atoms: _231  and  _234
REMARK  103  A    between atoms: _234  and  _235
REMARK  104  A    between atoms: _238  and  _240
REMARK  105  A    between atoms: _240  and  _241
REMARK  106  A    between atoms: _243  and  _245
REMARK  107  A    between atoms: _245  and  _246
REMARK  108  A    between atoms: _245  and  _248
REMARK  109  A    between atoms: _248  and  _249
REMARK  110  A    between atoms: _249  and  _250
REMARK  111  A    between atoms: _250  and  _251
REMARK  112  A    between atoms: _260  and  _262
REMARK  113  A    between atoms: _262  and  _263
REMARK  114  A    between atoms: _262  and  _265
REMARK  115  A    between atoms: _265  and  _266
REMARK  116  A    between atoms: _269  and  _271
REMARK  117  A    between atoms: _271  and  _272
REMARK  118  A    between atoms: _271  and  _274
REMARK  119  A    between atoms: _274  and  _275
REMARK  120  A    between atoms: _281  and  _285
REMARK  121  A    between atoms: _285  and  _286
REMARK  122  A    between atoms: _285  and  _288
REMARK  123  A    between atoms: _288  and  _289
REMARK  124  A    between atoms: _289  and  _290
REMARK  125  A    between atoms: _292  and  _294
REMARK  126  A    between atoms: _294  and  _295
REMARK  127  A    between atoms: _294  and  _297
REMARK  128  A    between atoms: _297  and  _298
REMARK  129  A    between atoms: _298  and  _299
REMARK  130  A    between atoms: _299  and  _300
REMARK  131  A    between atoms: _300  and  _301
REMARK  132  A    between atoms: _305  and  _307
REMARK  133  A    between atoms: _307  and  _308
REMARK  134  A    between atoms: _307  and  _310
REMARK  135  A    between atoms: _310  and  _311
REMARK  136  A    between atoms: _311  and  _312
REMARK  137  A    between atoms: _314  and  _316
REMARK  138  A    between atoms: _316  and  _317
REMARK  139  A    between atoms: _316  and  _319
REMARK  140  A    between atoms: _322  and  _324
REMARK  141  A    between atoms: _324  and  _325
REMARK  142  A    between atoms: _324  and  _327
REMARK  143  A    between atoms: _327  and  _328
REMARK  144  A    between atoms: _334  and  _336
REMARK  145  A    between atoms: _336  and  _337
REMARK  146  A    between atoms: _336  and  _339
REMARK  147  A    between atoms: _342  and  _344
REMARK  148  A    between atoms: _344  and  _345
REMARK  149  A    between atoms: _347  and  _349
REMARK  150  A    between atoms: _349  and  _350
REMARK  151  A    between atoms: _349  and  _352
REMARK  152  A    between atoms: _352  and  _353
REMARK  153  A    between atoms: _353  and  _354
REMARK  154  A    between atoms: _356  and  _358
REMARK  155  A    between atoms: _358  and  _359
REMARK  156  A    between atoms: _358  and  _361
REMARK  157  A    between atoms: _361  and  _362
REMARK  158  A    between atoms: _365  and  _367
REMARK  159  A    between atoms: _367  and  _368
REMARK  160  A    between atoms: _367  and  _370
REMARK  161  A    between atoms: _373  and  _375
REMARK  162  A    between atoms: _375  and  _376
REMARK  163  A    between atoms: _375  and  _378
REMARK  164  A    between atoms: _381  and  _383
REMARK  165  A    between atoms: _383  and  _384
REMARK  166  A    between atoms: _383  and  _386
REMARK  167  A    between atoms: _386  and  _387
REMARK  168  A    between atoms: _387  and  _388
REMARK  169  A    between atoms: _391  and  _393
REMARK  170  A    between atoms: _393  and  _394
REMARK  171  A    between atoms: _393  and  _396
REMARK  172  A    between atoms: _399  and  _401
REMARK  173  A    between atoms: _401  and  _402
REMARK  174  A    between atoms: _401  and  _404
REMARK  175  A    between atoms: _407  and  _409
REMARK  176  A    between atoms: _409  and  _410
REMARK  177  A    between atoms: _409  and  _412
REMARK  178  A    between atoms: _415  and  _417
REMARK  179  A    between atoms: _417  and  _418
REMARK  180  A    between atoms: _417  and  _420
REMARK  181  A    between atoms: _420  and  _421
REMARK  182  A    between atoms: _423  and  _425
REMARK  183  A    between atoms: _425  and  _426
REMARK  184  A    between atoms: _425  and  _428
REMARK  185  A    between atoms: _428  and  _429
REMARK  186  A    between atoms: _431  and  _433
REMARK  187  A    between atoms: _433  and  _434
REMARK  188  A    between atoms: _433  and  _436
REMARK  189  A    between atoms: _439  and  _441
REMARK  190  A    between atoms: _441  and  _442
REMARK  191  A    between atoms: _441  and  _444
REMARK  192  A    between atoms: _444  and  _445
REMARK  193  A    between atoms: _445  and  _446
REMARK  194  A    between atoms: _446  and  _447
REMARK  195  A    between atoms: _447  and  _448
REMARK  196  A    between atoms: _452  and  _454
REMARK  197  A    between atoms: _454  and  _455
REMARK  198  A    between atoms: _454  and  _457
REMARK  199  A    between atoms: _457  and  _458
REMARK  200  A    between atoms: _461  and  _463
REMARK  201  A    between atoms: _463  and  _464
REMARK  202  A    between atoms: _463  and  _466
REMARK  203  A    between atoms: _466  and  _467
REMARK  204  A    between atoms: _467  and  _468
REMARK  205  A    between atoms: _468  and  _469
REMARK  206  A    between atoms: _478  and  _480
REMARK  207  A    between atoms: _480  and  _481
REMARK  208  A    between atoms: _480  and  _483
REMARK  209  A    between atoms: _483  and  _484
REMARK  210  A    between atoms: _487  and  _489
REMARK  211  A    between atoms: _489  and  _490
REMARK  212  A    between atoms: _489  and  _492
REMARK  213  A    between atoms: _492  and  _493
REMARK  214  A    between atoms: _493  and  _494
REMARK                            x       y       z     vdW  Elec       q    Type
REMARK                         _______ _______ _______ _____ _____    ______ ____
ROOT
ATOM      1  CA  ASP A   6     -58.750 -12.552 -10.218  0.00  0.00    +0.160 C 
ENDROOT
BRANCH   1   3
ATOM      2  C   GLY A   5     -59.965 -11.939 -12.309  0.00  0.00    +0.243 C 
ATOM      3  N   ASP A   6     -59.427 -12.869 -11.487  0.00  0.00    -0.296 N 
ATOM      4  H   ASP A   6     -59.496 -13.868 -11.768  0.00  0.00    +0.150 HD
ATOM      5  O   GLY A   5     -59.931 -10.727 -12.064  0.00  0.00    -0.273 OA
BRANCH   2   6
ATOM      6  CA  GLY A   5     -60.614 -12.438 -13.588  0.00  0.00    +0.176 C 
BRANCH   6   9
ATOM      7  C   PHE A   4     -61.992 -14.477 -13.461  0.00  0.00    +0.241 C 
ATOM      8  O   PHE A   4     -63.042 -13.857 -13.258  0.00  0.00    -0.273 OA
ATOM      9  N   GLY A   5     -60.805 -13.888 -13.623  0.00  0.00    -0.295 N 
ATOM     10  H   GLY A   5     -59.973 -14.491 -13.782  0.00  0.00    +0.150 HD
BRANCH   7  11
ATOM     11  CA  PHE A   4     -62.001 -16.011 -13.494  0.00  0.00    +0.153 C 
BRANCH  11  14
ATOM     12  C   LYS A   3     -62.518 -16.355 -11.070  0.00  0.00    +0.241 C 
ATOM     13  O   LYS A   3     -61.507 -15.765 -10.672  0.00  0.00    -0.273 OA
ATOM     14  N   PHE A   4     -62.808 -16.523 -12.382  0.00  0.00    -0.297 N 
ATOM     15  H   PHE A   4     -63.669 -17.056 -12.619  0.00  0.00    +0.150 HD
BRANCH  12  16
ATOM     16  CA  LYS A   3     -63.535 -16.913 -10.056  0.00  0.00    +0.149 C 
BRANCH  16  18
ATOM     17  C   GLY A   2     -62.344 -18.326  -8.396  0.00  0.00    +0.243 C 
ATOM     18  N   LYS A   3     -62.893 -17.162  -8.760  0.00  0.00    -0.297 N 
ATOM     19  H   LYS A   3     -62.863 -16.378  -8.077  0.00  0.00    +0.150 HD
ATOM     20  O   GLY A   2     -62.346 -19.321  -9.125  0.00  0.00    -0.273 OA
BRANCH  17  21
ATOM     21  CA  GLY A   2     -61.713 -18.382  -7.015  0.00  0.00    +0.176 C 
BRANCH  21  24
ATOM     22  C   THR A   1     -62.370 -16.500  -5.568  0.00  0.00    +0.241 C 
ATOM     23  O   THR A   1     -63.400 -17.042  -5.171  0.00  0.00    -0.274 OA
ATOM     24  N   GLY A   2     -61.523 -17.060  -6.429  0.00  0.00    -0.295 N 
ATOM     25  H   GLY A   2     -60.675 -16.523  -6.700  0.00  0.00    +0.150 HD
BRANCH  22  26
ATOM     26  CA  THR A   1     -62.039 -15.072  -5.108  0.00  0.00    +0.172 C 
BRANCH  26  27
ATOM     27  N   THR A   1     -60.604 -14.825  -5.288  0.00  0.00    -0.236 NA
ATOM     28  H   THR A   1     -60.192 -15.076  -6.209  0.00  0.00    +0.142 HD
ENDBRANCH  26  27
BRANCH  26  29
ATOM     29  CB  THR A   1     -62.921 -14.060  -5.883  0.00  0.00    +0.135 C 
ATOM     30  CG2 THR A   1     -62.584 -12.613  -5.606  0.00  0.00    +0.034 C 
BRANCH  29  31
ATOM     31  OG1 THR A   1     -62.853 -14.329  -7.278  0.00  0.00    -0.383 OA
ATOM     32  HG1 THR A   1     -61.915 -14.247  -7.583  0.00  0.00    +0.210 HD
ENDBRANCH  29  31
ENDBRANCH  26  29
ENDBRANCH  22  26
ENDBRANCH  21  24
ENDBRANCH  17  21
ENDBRANCH  16  18
BRANCH  16  33
ATOM     33  CB  LYS A   3     -64.702 -15.907  -9.895  0.00  0.00    +0.029 C 
BRANCH  33  34
ATOM     34  CG  LYS A   3     -65.723 -16.244  -8.809  0.00  0.00    +0.000 C 
BRANCH  34  35
ATOM     35  CD  LYS A   3     -66.936 -16.956  -9.372  0.00  0.00    -0.024 C 
BRANCH  35  36
ATOM     36  CE  LYS A   3     -67.939 -17.277  -8.290  0.00  0.00    -0.086 C 
BRANCH  36  37
ATOM     37  NZ  LYS A   3     -69.166 -17.888  -8.857  0.00  0.00    +0.380 N 
ATOM     38  HZ1 LYS A   3     -69.835 -18.097  -8.088  0.00  0.00    -0.089 HD
ATOM     39  HZ2 LYS A   3     -68.917 -18.769  -9.350  0.00  0.00    -0.089 HD
ATOM     40  HZ3 LYS A   3     -69.603 -17.225  -9.528  0.00  0.00    -0.089 HD
ENDBRANCH  36  37
ENDBRANCH  35  36
ENDBRANCH  34  35
ENDBRANCH  33  34
ENDBRANCH  16  33
ENDBRANCH  12  16
ENDBRANCH  11  14
BRANCH  11  41
ATOM     41  CB  PHE A   4     -62.556 -16.507 -14.847  0.00  0.00    +0.055 C 
BRANCH  41  42
ATOM     42  CG  PHE A   4     -62.581 -18.009 -15.057  0.00  0.00    -0.020 A 
ATOM     43  CD2 PHE A   4     -61.409 -18.756 -15.004  0.00  0.00    -0.004 A 
ATOM     44  CE2 PHE A   4     -61.432 -20.142 -15.219  0.00  0.00    -0.000 A 
ATOM     45  CZ  PHE A   4     -62.625 -20.783 -15.488  0.00  0.00    -0.000 A 
ATOM     46  CE1 PHE A   4     -63.795 -20.055 -15.559  0.00  0.00    -0.000 A 
ATOM     47  CD1 PHE A   4     -63.771 -18.668 -15.363  0.00  0.00    -0.004 A 
ENDBRANCH  41  42
ENDBRANCH  11  41
ENDBRANCH   7  11
ENDBRANCH   6   9
ENDBRANCH   2   6
ENDBRANCH   1   3
BRANCH   1  48
ATOM     48  C   ASP A   6     -57.478 -11.718 -10.396  0.00  0.00    +0.241 C 
ATOM     49  O   ASP A   6     -57.117 -10.950  -9.507  0.00  0.00    -0.273 OA
ATOM     50  N   GLY A   7     -56.816 -11.883 -11.545  0.00  0.00    -0.295 N 
ATOM     51  H   GLY A   7     -57.164 -12.583 -12.231  0.00  0.00    +0.150 HD
BRANCH  50  52
ATOM     52  CA  GLY A   7     -55.626 -11.116 -11.865  0.00  0.00    +0.176 C 
BRANCH  52  53
ATOM     53  C   GLY A   7     -54.332 -11.889 -11.913  0.00  0.00    +0.243 C 
ATOM     54  O   GLY A   7     -54.306 -13.123 -11.804  0.00  0.00    -0.273 OA
ATOM     55  N   ARG A   8     -53.253 -11.130 -12.092  0.00  0.00    -0.297 N 
ATOM     56  H   ARG A   8     -53.394 -10.100 -12.113  0.00  0.00    +0.150 HD
BRANCH  55  57
ATOM     57  CA  ARG A   8     -51.891 -11.620 -12.261  0.00  0.00    +0.149 C 
BRANCH  57  58
ATOM     58  C   ARG A   8     -50.911 -10.807 -11.441  0.00  0.00    +0.241 C 
ATOM     59  N   ILE A   9     -49.788 -11.433 -11.105  0.00  0.00    -0.297 N 
ATOM     60  H   ILE A   9     -49.701 -12.441 -11.346  0.00  0.00    +0.150 HD
ATOM     61  O   ARG A   8     -51.148  -9.630 -11.159  0.00  0.00    -0.273 OA
BRANCH  59  62
ATOM     62  CA  ILE A   9     -48.672 -10.796 -10.421  0.00  0.00    +0.149 C 
BRANCH  62  63
ATOM     63  C   ILE A   9     -47.441 -10.997 -11.310  0.00  0.00    +0.241 C 
ATOM     64  N   PHE A  10     -46.764  -9.898 -11.648  0.00  0.00    -0.298 N 
ATOM     65  H   PHE A  10     -47.125  -8.974 -11.335  0.00  0.00    +0.150 HD
ATOM     66  O   ILE A   9     -47.118 -12.136 -11.680  0.00  0.00    -0.273 OA
BRANCH  64  67
ATOM     67  CA  PHE A  10     -45.530  -9.938 -12.443  0.00  0.00    +0.141 C 
BRANCH  67  68
ATOM     68  C   PHE A  10     -44.368  -9.431 -11.609  0.00  0.00    +0.227 C 
ATOM     69  O   PHE A  10     -44.492  -8.385 -10.962  0.00  0.00    -0.286 OA
ENDBRANCH  67  68
BRANCH  67  70
ATOM     70  CB  PHE A  10     -45.686  -9.139 -13.750  0.00  0.00    +0.054 C 
BRANCH  70  71
ATOM     71  CG  PHE A  10     -46.918  -9.490 -14.557  0.00  0.00    -0.020 A 
ATOM     72  CD2 PHE A  10     -47.881  -8.524 -14.840  0.00  0.00    -0.004 A 
ATOM     73  CE2 PHE A  10     -49.002  -8.843 -15.615  0.00  0.00    -0.000 A 
ATOM     74  CZ  PHE A  10     -49.162 -10.126 -16.101  0.00  0.00    -0.000 A 
ATOM     75  CE1 PHE A  10     -48.224 -11.096 -15.816  0.00  0.00    -0.000 A 
ATOM     76  CD1 PHE A  10     -47.099 -10.778 -15.059  0.00  0.00    -0.004 A 
ENDBRANCH  70  71
ENDBRANCH  67  70
ENDBRANCH  64  67
ENDBRANCH  62  63
BRANCH  62  77
ATOM     77  CB  ILE A   9     -48.431 -11.317  -8.979  0.00  0.00    +0.027 C 
ATOM     78  CG2 ILE A   9     -47.223 -10.615  -8.337  0.00  0.00    +0.002 C 
BRANCH  77  79
ATOM     79  CG1 ILE A   9     -49.690 -11.175  -8.092  0.00  0.00    +0.002 C 
ATOM     80  CD1 ILE A   9     -49.684 -12.082  -6.911  0.00  0.00    +0.000 C 
ENDBRANCH  77  79
ENDBRANCH  62  77
ENDBRANCH  59  62
ENDBRANCH  57  58
BRANCH  57  81
ATOM     81  CB  ARG A   8     -51.466 -11.514 -13.753  0.00  0.00    +0.033 C 
BRANCH  81  82
ATOM     82  CG  ARG A   8     -52.347 -12.222 -14.773  0.00  0.00    +0.045 C 
BRANCH  82  83
ATOM     83  CD  ARG A   8     -52.073 -13.711 -14.865  0.00  0.00    +0.174 C 
BRANCH  83  84
ATOM     84  NE  ARG A   8     -53.136 -14.386 -15.604  0.00  0.00    -0.265 N 
ATOM     85  HE  ARG A   8     -54.010 -14.617 -15.091  0.00  0.00    +0.259 HD
ATOM     86  CZ  ARG A   8     -53.064 -14.725 -16.886  0.00  0.00    +0.342 C 
ATOM     87  NH2 ARG A   8     -54.091 -15.321 -17.478  0.00  0.00    -0.292 N 
ATOM     88 HH21 ARG A   8     -54.956 -15.524 -16.938  0.00  0.00    +0.255 HD
ATOM     89 HH22 ARG A   8     -54.031 -15.585 -18.482  0.00  0.00    +0.255 HD
ATOM     90  NH1 ARG A   8     -51.961 -14.482 -17.583  0.00  0.00    -0.292 N 
ATOM     91 HH11 ARG A   8     -51.147 -14.024 -17.126  0.00  0.00    +0.255 HD
ATOM     92 HH12 ARG A   8     -51.911 -14.750 -18.587  0.00  0.00    +0.255 HD
ENDBRANCH  83  84
ENDBRANCH  82  83
ENDBRANCH  81  82
ENDBRANCH  57  81
ENDBRANCH  55  57
ENDBRANCH  52  53
ENDBRANCH  50  52
ENDBRANCH   1  48
BRANCH   1  93
ATOM     93  CB  ASP A   6     -58.459 -13.826  -9.421  0.00  0.00    +0.143 C 
BRANCH  93  94
ATOM     94  CG  ASP A   6     -59.595 -14.269  -8.511  0.00  0.00    +0.367 C 
ATOM     95  OD2 ASP A   6     -59.436 -15.299  -7.830  0.00  0.00    -0.246 OA
ATOM     96  OD1 ASP A   6     -60.641 -13.568  -8.471  0.00  0.00    -0.246 OA
ENDBRANCH  93  94
ENDBRANCH   1  93
TORSDOF 39
REMARK  Name = ../refined-set-2016/3ta0/3ta0_pocket.pdb
REMARK  214 active torsions:
REMARK  status: ('A' for Active; 'I' for Inactive)
REMARK    1  A    between atoms: _1  and  _3
REMARK    2  A    between atoms: _3  and  _4
REMARK    3  A    between atoms: _7  and  _9
REMARK    4  A    between atoms: _9  and  _10
REMARK    5  A    between atoms: _9  and  _12
REMARK    6  A    between atoms: _15  and  _17
REMARK    7  A    between atoms: _17  and  _18
REMARK    8  A    between atoms: _17  and  _20
REMARK    9  A    between atoms: _20  and  _21
REMARK   10  A    between atoms: _24  and  _26
REMARK   11  A    between atoms: _26  and  _27
REMARK   12  A    between atoms: _26  and  _29
REMARK   13  A    between atoms: _29  and  _30
REMARK   14  A    between atoms: _30  and  _31
REMARK   15  A    between atoms: _31  and  _32
REMARK   16  A    between atoms: _41  and  _43
REMARK   17  A    between atoms: _43  and  _44
REMARK   18  A    between atoms: _43  and  _46
REMARK   19  A    between atoms: _49  and  _51
REMARK   20  A    between atoms: _51  and  _52
REMARK   21  A    between atoms: _51  and  _54
REMARK   22  A    between atoms: _54  and  _55
REMARK   23  A    between atoms: _55  and  _56
REMARK   24  A    between atoms: _56  and  _57
REMARK   25  A    between atoms: _57  and  _58
REMARK   26  A    between atoms: _62  and  _64
REMARK   27  A    between atoms: _64  and  _65
REMARK   28  A    between atoms: _67  and  _69
REMARK   29  A    between atoms: _69  and  _70
REMARK   30  A    between atoms: _69  and  _72
REMARK   31  A    between atoms: _72  and  _73
REMARK   32  A    between atoms: _73  and  _74
REMARK   33  A    between atoms: _74  and  _75
REMARK   34  A    between atoms: _84  and  _86
REMARK   35  A    between atoms: _86  and  _87
REMARK   36  A    between atoms: _89  and  _91
REMARK   37  A    between atoms: _91  and  _92
REMARK   38  A    between atoms: _91  and  _94
REMARK   39  A    between atoms: _94  and  _95
REMARK   40  A    between atoms: _95  and  _96
REMARK   41  A    between atoms: _99  and  _101
REMARK   42  A    between atoms: _101  and  _102
REMARK   43  A    between atoms: _101  and  _104
REMARK   44  A    between atoms: _104  and  _105
REMARK   45  A    between atoms: _105  and  _106
REMARK   46  A    between atoms: _111  and  _113
REMARK   47  A    between atoms: _113  and  _114
REMARK   48  A    between atoms: _113  and  _116
REMARK   49  A    between atoms: _116  and  _117
REMARK   50  A    between atoms: _120  and  _122
REMARK   51  A    between atoms: _122  and  _123
REMARK   52  A    between atoms: _122  and  _125
REMARK   53  A    between atoms: _125  and  _126
REMARK   54  A    between atoms: _129  and  _131
REMARK   55  A    between atoms: _131  and  _132
REMARK   56  A    between atoms: _131  and  _134
REMARK   57  A    between atoms: _134  and  _135
REMARK   58  A    between atoms: _138  and  _140
REMARK   59  A    between atoms: _140  and  _141
REMARK   60  A    between atoms: _140  and  _143
REMARK   61  A    between atoms: _143  and  _144
REMARK   62  A    between atoms: _144  and  _145
REMARK   63  A    between atoms: _150  and  _152
REMARK   64  A    between atoms: _152  and  _153
REMARK   65  A    between atoms: _152  and  _155
REMARK   66  A    between atoms: _155  and  _156
REMARK   67  A    between atoms: _156  and  _157
REMARK   68  A    between atoms: _157  and  _158
REMARK   69  A    between atoms: _158  and  _159
REMARK   70  A    between atoms: _163  and  _165
REMARK   71  A    between atoms: _165  and  _166
REMARK   72  A    between atoms: _165  and  _168
REMARK   73  A    between atoms: _168  and  _169
REMARK   74  A    between atoms: _172  and  _174
REMARK   75  A    between atoms: _174  and  _175
REMARK   76  A    between atoms: _174  and  _177
REMARK   77  A    between atoms: _177  and  _178
REMARK   78  A    between atoms: _178  and  _179
REMARK   79  A    between atoms: _179  and  _180
REMARK   80  A    between atoms: _180  and  _181
REMARK   81  A    between atoms: _185  and  _187
REMARK   82  A    between atoms: _187  and  _188
REMARK   83  A    between atoms: _187  and  _190
REMARK   84  A    between atoms: _190  and  _191
REMARK   85  A    between atoms: _194  and  _196
REMARK   86  A    between atoms: _196  and  _197
REMARK   87  A    between atoms: _199  and  _201
REMARK   88  A    between atoms: _201  and  _202
REMARK   89  A    between atoms: _201  and  _204
REMARK   90  A    between atoms: _204  and  _205
REMARK   91  A    between atoms: _205  and  _206
REMARK   92  A    between atoms: _206  and  _207
REMARK   93  A    between atoms: _207  and  _208
REMARK   94  A    between atoms: _212  and  _214
REMARK   95  A    between atoms: _214  and  _215
REMARK   96  A    between atoms: _214  and  _217
REMARK   97  A    between atoms: _217  and  _218
REMARK   98  A    between atoms: _224  and  _226
REMARK   99  A    between atoms: _226  and  _227
REMARK  100  A    between atoms: _229  and  _231
REMARK  101  A    between atoms: _231  and  _232
REMARK  102  A    between atoms: _231  and  _234
REMARK  103  A    between atoms: _234  and  _235
REMARK  104  A    between atoms: _238  and  _240
REMARK  105  A    between atoms: _240  and  _241
REMARK  106  A    between atoms: _243  and  _245
REMARK  107  A    between atoms: _245  and  _246
REMARK  108  A    between atoms: _245  and  _248
REMARK  109  A    between atoms: _248  and  _249
REMARK  110  A    between atoms: _249  and  _250
REMARK  111  A    between atoms: _250  and  _251
REMARK  112  A    between atoms: _260  and  _262
REMARK  113  A    between atoms: _262  and  _263
REMARK  114  A    between atoms: _262  and  _265
REMARK  115  A    between atoms: _265  and  _266
REMARK  116  A    between atoms: _269  and  _271
REMARK  117  A    between atoms: _271  and  _272
REMARK  118  A    between atoms: _271  and  _274
REMARK  119  A    between atoms: _274  and  _275
REMARK  120  A    between atoms: _281  and  _285
REMARK  121  A    between atoms: _285  and  _286
REMARK  122  A    between atoms: _285  and  _288
REMARK  123  A    between atoms: _288  and  _289
REMARK  124  A    between atoms: _289  and  _290
REMARK  125  A    between atoms: _292  and  _294
REMARK  126  A    between atoms: _294  and  _295
REMARK  127  A    between atoms: _294  and  _297
REMARK  128  A    between atoms: _297  and  _298
REMARK  129  A    between atoms: _298  and  _299
REMARK  130  A    between atoms: _299  and  _300
REMARK  131  A    between atoms: _300  and  _301
REMARK  132  A    between atoms: _305  and  _307
REMARK  133  A    between atoms: _307  and  _308
REMARK  134  A    between atoms: _307  and  _310
REMARK  135  A    between atoms: _310  and  _311
REMARK  136  A    between atoms: _311  and  _312
REMARK  137  A    between atoms: _314  and  _316
REMARK  138  A    between atoms: _316  and  _317
REMARK  139  A    between atoms: _316  and  _319
REMARK  140  A    between atoms: _322  and  _324
REMARK  141  A    between atoms: _324  and  _325
REMARK  142  A    between atoms: _324  and  _327
REMARK  143  A    between atoms: _327  and  _328
REMARK  144  A    between atoms: _334  and  _336
REMARK  145  A    between atoms: _336  and  _337
REMARK  146  A    between atoms: _336  and  _339
REMARK  147  A    between atoms: _342  and  _344
REMARK  148  A    between atoms: _344  and  _345
REMARK  149  A    between atoms: _347  and  _349
REMARK  150  A    between atoms: _349  and  _350
REMARK  151  A    between atoms: _349  and  _352
REMARK  152  A    between atoms: _352  and  _353
REMARK  153  A    between atoms: _353  and  _354
REMARK  154  A    between atoms: _356  and  _358
REMARK  155  A    between atoms: _358  and  _359
REMARK  156  A    between atoms: _358  and  _361
REMARK  157  A    between atoms: _361  and  _362
REMARK  158  A    between atoms: _365  and  _367
REMARK  159  A    between atoms: _367  and  _368
REMARK  160  A    between atoms: _367  and  _370
REMARK  161  A    between atoms: _373  and  _375
REMARK  162  A    between atoms: _375  and  _376
REMARK  163  A    between atoms: _375  and  _378
REMARK  164  A    between atoms: _381  and  _383
REMARK  165  A    between atoms: _383  and  _384
REMARK  166  A    between atoms: _383  and  _386
REMARK  167  A    between atoms: _386  and  _387
REMARK  168  A    between atoms: _387  and  _388
REMARK  169  A    between atoms: _391  and  _393
REMARK  170  A    between atoms: _393  and  _394
REMARK  171  A    between atoms: _393  and  _396
REMARK  172  A    between atoms: _399  and  _401
REMARK  173  A    between atoms: _401  and  _402
REMARK  174  A    between atoms: _401  and  _404
REMARK  175  A    between atoms: _407  and  _409
REMARK  176  A    between atoms: _409  and  _410
REMARK  177  A    between atoms: _409  and  _412
REMARK  178  A    between atoms: _415  and  _417
REMARK  179  A    between atoms: _417  and  _418
REMARK  180  A    between atoms: _417  and  _420
REMARK  181  A    between atoms: _420  and  _421
REMARK  182  A    between atoms: _423  and  _425
REMARK  183  A    between atoms: _425  and  _426
REMARK  184  A    between atoms: _425  and  _428
REMARK  185  A    between atoms: _428  and  _429
REMARK  186  A    between atoms: _431  and  _433
REMARK  187  A    between atoms: _433  and  _434
REMARK  188  A    between atoms: _433  and  _436
REMARK  189  A    between atoms: _439  and  _441
REMARK  190  A    between atoms: _441  and  _442
REMARK  191  A    between atoms: _441  and  _444
REMARK  192  A    between atoms: _444  and  _445
REMARK  193  A    between atoms: _445  and  _446
REMARK  194  A    between atoms: _446  and  _447
REMARK  195  A    between atoms: _447  and  _448
REMARK  196  A    between atoms: _452  and  _454
REMARK  197  A    between atoms: _454  and  _455
REMARK  198  A    between atoms: _454  and  _457
REMARK  199  A    between atoms: _457  and  _458
REMARK  200  A    between atoms: _461  and  _463
REMARK  201  A    between atoms: _463  and  _464
REMARK  202  A    between atoms: _463  and  _466
REMARK  203  A    between atoms: _466  and  _467
REMARK  204  A    between atoms: _467  and  _468
REMARK  205  A    between atoms: _468  and  _469
REMARK  206  A    between atoms: _478  and  _480
REMARK  207  A    between atoms: _480  and  _481
REMARK  208  A    between atoms: _480  and  _483
REMARK  209  A    between atoms: _483  and  _484
REMARK  210  A    between atoms: _487  and  _489
REMARK  211  A    between atoms: _489  and  _490
REMARK  212  A    between atoms: _489  and  _492
REMARK  213  A    between atoms: _492  and  _493
REMARK  214  A    between atoms: _493  and  _494
REMARK                            x       y       z     vdW  Elec       q    Type
REMARK                         _______ _______ _______ _____ _____    ______ ____
ROOT
ATOM      1  CA  LYS A   2     -41.029 -10.499 -20.964  0.00  0.00    +0.148 C 
ENDROOT
BRANCH   1   4
ATOM      2  C   MET A   1     -40.625 -12.698 -19.935  0.00  0.00    +0.202 C 
ATOM      3  O   MET A   1     -39.601 -12.326 -19.357  0.00  0.00    -0.277 OA
ATOM      4  N   LYS A   2     -41.345 -11.903 -20.734  0.00  0.00    -0.300 N 
ATOM      5  H   LYS A   2     -42.173 -12.308 -21.216  0.00  0.00    +0.150 HD
BRANCH   2   6
ATOM      6  CA  MET A   1     -41.146 -14.102 -19.728  0.00  0.00    +0.014 C 
BRANCH   6   7
ATOM      7  N   MET A   1     -40.013 -15.001 -19.483  0.00  0.00    +0.387 N 
ATOM      8  H1  MET A   1     -39.501 -14.688 -18.634  0.00  0.00    -0.089 HD
ATOM      9  H2  MET A   1     -40.365 -15.969 -19.340  0.00  0.00    -0.089 HD
ATOM     10  H3  MET A   1     -39.373 -14.981 -20.302  0.00  0.00    -0.089 HD
ENDBRANCH   6   7
BRANCH   6  11
ATOM     11  CB  MET A   1     -42.131 -14.057 -18.537  0.00  0.00    -0.001 C 
BRANCH  11  12
ATOM     12  CG  MET A   1     -42.493 -15.426 -17.924  0.00  0.00    +0.056 C 
BRANCH  12  13
ATOM     13  SD  MET A   1     -43.658 -16.373 -18.936  0.00  0.00    -0.139 S 
ATOM     14  CE  MET A   1     -45.147 -15.303 -18.830  0.00  0.00    +0.069 C 
ENDBRANCH  12  13
ENDBRANCH  11  12
ENDBRANCH   6  11
ENDBRANCH   2   6
ENDBRANCH   1   4
BRANCH   1  15
ATOM     15  C   LYS A   2     -42.311  -9.711 -20.929  0.00  0.00    +0.241 C 
ATOM     16  N   MET A   3     -42.215  -8.432 -20.562  0.00  0.00    -0.297 N 
ATOM     17  H   MET A   3     -41.297  -8.072 -20.233  0.00  0.00    +0.150 HD
ATOM     18  O   LYS A   2     -43.366 -10.245 -21.272  0.00  0.00    -0.273 OA
BRANCH  16  19
ATOM     19  CA  MET A   3     -43.341  -7.531 -20.606  0.00  0.00    +0.149 C 
BRANCH  19  20
ATOM     20  C   MET A   3     -43.088  -6.593 -21.755  0.00  0.00    +0.241 C 
ATOM     21  O   MET A   3     -42.083  -5.878 -21.772  0.00  0.00    -0.273 OA
ATOM     22  N   VAL A   4     -44.012  -6.608 -22.723  0.00  0.00    -0.298 N 
ATOM     23  H   VAL A   4     -44.794  -7.287 -22.630  0.00  0.00    +0.150 HD
BRANCH  22  24
ATOM     24  CA  VAL A   4     -44.007  -5.748 -23.895  0.00  0.00    +0.137 C 
BRANCH  24  25
ATOM     25  CB  VAL A   4     -44.534  -6.500 -25.154  0.00  0.00    +0.026 C 
ATOM     26  CG2 VAL A   4     -43.706  -7.757 -25.438  0.00  0.00    +0.002 C 
ATOM     27  CG1 VAL A   4     -44.556  -5.587 -26.370  0.00  0.00    +0.002 C 
ENDBRANCH  24  25
BRANCH  24  28
ATOM     28  C   VAL A   4     -44.868  -4.531 -23.504  0.00  0.00    +0.227 C 
ATOM     29  O   VAL A   4     -46.039  -4.684 -23.185  0.00  0.00    -0.286 OA
ENDBRANCH  24  28
ENDBRANCH  22  24
ENDBRANCH  19  20
BRANCH  19  30
ATOM     30  CB  MET A   3     -43.550  -6.747 -19.289  0.00  0.00    +0.041 C 
BRANCH  30  31
ATOM     31  CG  MET A   3     -44.819  -5.878 -19.300  0.00  0.00    +0.060 C 
BRANCH  31  32
ATOM     32  SD  MET A   3     -44.965  -4.759 -17.878  0.00  0.00    -0.139 S 
ATOM     33  CE  MET A   3     -45.480  -5.910 -16.612  0.00  0.00    +0.069 C 
ENDBRANCH  31  32
ENDBRANCH  30  31
ENDBRANCH  19  30
ENDBRANCH  16  19
ENDBRANCH   1  15
BRANCH   1  34
ATOM     34  CB  LYS A   2     -40.336 -10.262 -22.327  0.00  0.00    +0.029 C 
BRANCH  34  35
ATOM     35  CG  LYS A   2     -39.092 -11.102 -22.628  0.00  0.00    +0.000 C 
BRANCH  35  36
ATOM     36  CD  LYS A   2     -37.862 -10.679 -21.860  0.00  0.00    -0.024 C 
BRANCH  36  37
ATOM     37  CE  LYS A   2     -36.789 -11.728 -22.017  0.00  0.00    -0.086 C 
BRANCH  37  38
ATOM     38  NZ  LYS A   2     -35.782 -11.662 -20.929  0.00  0.00    +0.380 N 
ATOM     39  HZ1 LYS A   2     -36.252 -11.813 -20.014  0.00  0.00    -0.089 HD
ATOM     40  HZ2 LYS A   2     -35.326 -10.727 -20.936  0.00  0.00    -0.089 HD
ATOM     41  HZ3 LYS A   2     -35.065 -12.400 -21.077  0.00  0.00    -0.089 HD
ENDBRANCH  37  38
ENDBRANCH  36  37
ENDBRANCH  35  36
ENDBRANCH  34  35
ENDBRANCH   1  34
TORSDOF 20
REMARK  Name = ../refined-set-2016/3ta0/3ta0_pocket.pdb
REMARK  214 active torsions:
REMARK  status: ('A' for Active; 'I' for Inactive)
REMARK    1  A    between atoms: _1  and  _3
REMARK    2  A    between atoms: _3  and  _4
REMARK    3  A    between atoms: _7  and  _9
REMARK    4  A    between atoms: _9  and  _10
REMARK    5  A    between atoms: _9  and  _12
REMARK    6  A    between atoms: _15  and  _17
REMARK    7  A    between atoms: _17  and  _18
REMARK    8  A    between atoms: _17  and  _20
REMARK    9  A    between atoms: _20  and  _21
REMARK   10  A    between atoms: _24  and  _26
REMARK   11  A    between atoms: _26  and  _27
REMARK   12  A    between atoms: _26  and  _29
REMARK   13  A    between atoms: _29  and  _30
REMARK   14  A    between atoms: _30  and  _31
REMARK   15  A    between atoms: _31  and  _32
REMARK   16  A    between atoms: _41  and  _43
REMARK   17  A    between atoms: _43  and  _44
REMARK   18  A    between atoms: _43  and  _46
REMARK   19  A    between atoms: _49  and  _51
REMARK   20  A    between atoms: _51  and  _52
REMARK   21  A    between atoms: _51  and  _54
REMARK   22  A    between atoms: _54  and  _55
REMARK   23  A    between atoms: _55  and  _56
REMARK   24  A    between atoms: _56  and  _57
REMARK   25  A    between atoms: _57  and  _58
REMARK   26  A    between atoms: _62  and  _64
REMARK   27  A    between atoms: _64  and  _65
REMARK   28  A    between atoms: _67  and  _69
REMARK   29  A    between atoms: _69  and  _70
REMARK   30  A    between atoms: _69  and  _72
REMARK   31  A    between atoms: _72  and  _73
REMARK   32  A    between atoms: _73  and  _74
REMARK   33  A    between atoms: _74  and  _75
REMARK   34  A    between atoms: _84  and  _86
REMARK   35  A    between atoms: _86  and  _87
REMARK   36  A    between atoms: _89  and  _91
REMARK   37  A    between atoms: _91  and  _92
REMARK   38  A    between atoms: _91  and  _94
REMARK   39  A    between atoms: _94  and  _95
REMARK   40  A    between atoms: _95  and  _96
REMARK   41  A    between atoms: _99  and  _101
REMARK   42  A    between atoms: _101  and  _102
REMARK   43  A    between atoms: _101  and  _104
REMARK   44  A    between atoms: _104  and  _105
REMARK   45  A    between atoms: _105  and  _106
REMARK   46  A    between atoms: _111  and  _113
REMARK   47  A    between atoms: _113  and  _114
REMARK   48  A    between atoms: _113  and  _116
REMARK   49  A    between atoms: _116  and  _117
REMARK   50  A    between atoms: _120  and  _122
REMARK   51  A    between atoms: _122  and  _123
REMARK   52  A    between atoms: _122  and  _125
REMARK   53  A    between atoms: _125  and  _126
REMARK   54  A    between atoms: _129  and  _131
REMARK   55  A    between atoms: _131  and  _132
REMARK   56  A    between atoms: _131  and  _134
REMARK   57  A    between atoms: _134  and  _135
REMARK   58  A    between atoms: _138  and  _140
REMARK   59  A    between atoms: _140  and  _141
REMARK   60  A    between atoms: _140  and  _143
REMARK   61  A    between atoms: _143  and  _144
REMARK   62  A    between atoms: _144  and  _145
REMARK   63  A    between atoms: _150  and  _152
REMARK   64  A    between atoms: _152  and  _153
REMARK   65  A    between atoms: _152  and  _155
REMARK   66  A    between atoms: _155  and  _156
REMARK   67  A    between atoms: _156  and  _157
REMARK   68  A    between atoms: _157  and  _158
REMARK   69  A    between atoms: _158  and  _159
REMARK   70  A    between atoms: _163  and  _165
REMARK   71  A    between atoms: _165  and  _166
REMARK   72  A    between atoms: _165  and  _168
REMARK   73  A    between atoms: _168  and  _169
REMARK   74  A    between atoms: _172  and  _174
REMARK   75  A    between atoms: _174  and  _175
REMARK   76  A    between atoms: _174  and  _177
REMARK   77  A    between atoms: _177  and  _178
REMARK   78  A    between atoms: _178  and  _179
REMARK   79  A    between atoms: _179  and  _180
REMARK   80  A    between atoms: _180  and  _181
REMARK   81  A    between atoms: _185  and  _187
REMARK   82  A    between atoms: _187  and  _188
REMARK   83  A    between atoms: _187  and  _190
REMARK   84  A    between atoms: _190  and  _191
REMARK   85  A    between atoms: _194  and  _196
REMARK   86  A    between atoms: _196  and  _197
REMARK   87  A    between atoms: _199  and  _201
REMARK   88  A    between atoms: _201  and  _202
REMARK   89  A    between atoms: _201  and  _204
REMARK   90  A    between atoms: _204  and  _205
REMARK   91  A    between atoms: _205  and  _206
REMARK   92  A    between atoms: _206  and  _207
REMARK   93  A    between atoms: _207  and  _208
REMARK   94  A    between atoms: _212  and  _214
REMARK   95  A    between atoms: _214  and  _215
REMARK   96  A    between atoms: _214  and  _217
REMARK   97  A    between atoms: _217  and  _218
REMARK   98  A    between atoms: _224  and  _226
REMARK   99  A    between atoms: _226  and  _227
REMARK  100  A    between atoms: _229  and  _231
REMARK  101  A    between atoms: _231  and  _232
REMARK  102  A    between atoms: _231  and  _234
REMARK  103  A    between atoms: _234  and  _235
REMARK  104  A    between atoms: _238  and  _240
REMARK  105  A    between atoms: _240  and  _241
REMARK  106  A    between atoms: _243  and  _245
REMARK  107  A    between atoms: _245  and  _246
REMARK  108  A    between atoms: _245  and  _248
REMARK  109  A    between atoms: _248  and  _249
REMARK  110  A    between atoms: _249  and  _250
REMARK  111  A    between atoms: _250  and  _251
REMARK  112  A    between atoms: _260  and  _262
REMARK  113  A    between atoms: _262  and  _263
REMARK  114  A    between atoms: _262  and  _265
REMARK  115  A    between atoms: _265  and  _266
REMARK  116  A    between atoms: _269  and  _271
REMARK  117  A    between atoms: _271  and  _272
REMARK  118  A    between atoms: _271  and  _274
REMARK  119  A    between atoms: _274  and  _275
REMARK  120  A    between atoms: _281  and  _285
REMARK  121  A    between atoms: _285  and  _286
REMARK  122  A    between atoms: _285  and  _288
REMARK  123  A    between atoms: _288  and  _289
REMARK  124  A    between atoms: _289  and  _290
REMARK  125  A    between atoms: _292  and  _294
REMARK  126  A    between atoms: _294  and  _295
REMARK  127  A    between atoms: _294  and  _297
REMARK  128  A    between atoms: _297  and  _298
REMARK  129  A    between atoms: _298  and  _299
REMARK  130  A    between atoms: _299  and  _300
REMARK  131  A    between atoms: _300  and  _301
REMARK  132  A    between atoms: _305  and  _307
REMARK  133  A    between atoms: _307  and  _308
REMARK  134  A    between atoms: _307  and  _310
REMARK  135  A    between atoms: _310  and  _311
REMARK  136  A    between atoms: _311  and  _312
REMARK  137  A    between atoms: _314  and  _316
REMARK  138  A    between atoms: _316  and  _317
REMARK  139  A    between atoms: _316  and  _319
REMARK  140  A    between atoms: _322  and  _324
REMARK  141  A    between atoms: _324  and  _325
REMARK  142  A    between atoms: _324  and  _327
REMARK  143  A    between atoms: _327  and  _328
REMARK  144  A    between atoms: _334  and  _336
REMARK  145  A    between atoms: _336  and  _337
REMARK  146  A    between atoms: _336  and  _339
REMARK  147  A    between atoms: _342  and  _344
REMARK  148  A    between atoms: _344  and  _345
REMARK  149  A    between atoms: _347  and  _349
REMARK  150  A    between atoms: _349  and  _350
REMARK  151  A    between atoms: _349  and  _352
REMARK  152  A    between atoms: _352  and  _353
REMARK  153  A    between atoms: _353  and  _354
REMARK  154  A    between atoms: _356  and  _358
REMARK  155  A    between atoms: _358  and  _359
REMARK  156  A    between atoms: _358  and  _361
REMARK  157  A    between atoms: _361  and  _362
REMARK  158  A    between atoms: _365  and  _367
REMARK  159  A    between atoms: _367  and  _368
REMARK  160  A    between atoms: _367  and  _370
REMARK  161  A    between atoms: _373  and  _375
REMARK  162  A    between atoms: _375  and  _376
REMARK  163  A    between atoms: _375  and  _378
REMARK  164  A    between atoms: _381  and  _383
REMARK  165  A    between atoms: _383  and  _384
REMARK  166  A    between atoms: _383  and  _386
REMARK  167  A    between atoms: _386  and  _387
REMARK  168  A    between atoms: _387  and  _388
REMARK  169  A    between atoms: _391  and  _393
REMARK  170  A    between atoms: _393  and  _394
REMARK  171  A    between atoms: _393  and  _396
REMARK  172  A    between atoms: _399  and  _401
REMARK  173  A    between atoms: _401  and  _402
REMARK  174  A    between atoms: _401  and  _404
REMARK  175  A    between atoms: _407  and  _409
REMARK  176  A    between atoms: _409  and  _410
REMARK  177  A    between atoms: _409  and  _412
REMARK  178  A    between atoms: _415  and  _417
REMARK  179  A    between atoms: _417  and  _418
REMARK  180  A    between atoms: _417  and  _420
REMARK  181  A    between atoms: _420  and  _421
REMARK  182  A    between atoms: _423  and  _425
REMARK  183  A    between atoms: _425  and  _426
REMARK  184  A    between atoms: _425  and  _428
REMARK  185  A    between atoms: _428  and  _429
REMARK  186  A    between atoms: _431  and  _433
REMARK  187  A    between atoms: _433  and  _434
REMARK  188  A    between atoms: _433  and  _436
REMARK  189  A    between atoms: _439  and  _441
REMARK  190  A    between atoms: _441  and  _442
REMARK  191  A    between atoms: _441  and  _444
REMARK  192  A    between atoms: _444  and  _445
REMARK  193  A    between atoms: _445  and  _446
REMARK  194  A    between atoms: _446  and  _447
REMARK  195  A    between atoms: _447  and  _448
REMARK  196  A    between atoms: _452  and  _454
REMARK  197  A    between atoms: _454  and  _455
REMARK  198  A    between atoms: _454  and  _457
REMARK  199  A    between atoms: _457  and  _458
REMARK  200  A    between atoms: _461  and  _463
REMARK  201  A    between atoms: _463  and  _464
REMARK  202  A    between atoms: _463  and  _466
REMARK  203  A    between atoms: _466  and  _467
REMARK  204  A    between atoms: _467  and  _468
REMARK  205  A    between atoms: _468  and  _469
REMARK  206  A    between atoms: _478  and  _480
REMARK  207  A    between atoms: _480  and  _481
REMARK  208  A    between atoms: _480  and  _483
REMARK  209  A    between atoms: _483  and  _484
REMARK  210  A    between atoms: _487  and  _489
REMARK  211  A    between atoms: _489  and  _490
REMARK  212  A    between atoms: _489  and  _492
REMARK  213  A    between atoms: _492  and  _493
REMARK  214  A    between atoms: _493  and  _494
REMARK                            x       y       z     vdW  Elec       q    Type
REMARK                         _______ _______ _______ _____ _____    ______ ____
ROOT
ATOM      1  C   GLY A   3     -53.580  -9.587 -22.245  0.00  0.00    +0.243 C 
ATOM      2  N   MET A   4     -54.109  -8.495 -21.683  0.00  0.00    -0.297 N 
ATOM      3  H   MET A   4     -55.005  -8.588 -21.164  0.00  0.00    +0.150 HD
ATOM      4  O   GLY A   3     -52.533  -9.562 -22.893  0.00  0.00    -0.273 OA
ENDROOT
BRANCH   2   5
ATOM      5  CA  MET A   4     -53.477  -7.163 -21.767  0.00  0.00    +0.149 C 
BRANCH   5   6
ATOM      6  C   MET A   4     -53.983  -6.228 -20.689  0.00  0.00    +0.241 C 
ATOM      7  O   MET A   4     -55.120  -6.354 -20.246  0.00  0.00    -0.273 OA
ATOM      8  N   THR A   5     -53.153  -5.260 -20.314  0.00  0.00    -0.295 N 
ATOM      9  H   THR A   5     -52.207  -5.241 -20.745  0.00  0.00    +0.150 HD
BRANCH   8  10
ATOM     10  CA  THR A   5     -53.475  -4.221 -19.340  0.00  0.00    +0.176 C 
BRANCH  10  11
ATOM     11  C   THR A   5     -53.252  -2.886 -20.059  0.00  0.00    +0.243 C 
ATOM     12  N   VAL A   6     -54.257  -2.009 -19.996  0.00  0.00    -0.298 N 
ATOM     13  H   VAL A   6     -55.089  -2.263 -19.426  0.00  0.00    +0.150 HD
ATOM     14  O   THR A   5     -52.203  -2.675 -20.686  0.00  0.00    -0.273 OA
BRANCH  12  15
ATOM     15  CA  VAL A   6     -54.263  -0.713 -20.677  0.00  0.00    +0.137 C 
BRANCH  15  16
ATOM     16  CB  VAL A   6     -55.431  -0.644 -21.727  0.00  0.00    +0.026 C 
ATOM     17  CG2 VAL A   6     -55.442   0.670 -22.500  0.00  0.00    +0.002 C 
ATOM     18  CG1 VAL A   6     -55.399  -1.835 -22.686  0.00  0.00    +0.002 C 
ENDBRANCH  15  16
BRANCH  15  19
ATOM     19  C   VAL A   6     -54.332   0.412 -19.660  0.00  0.00    +0.227 C 
ATOM     20  O   VAL A   6     -55.124   0.344 -18.731  0.00  0.00    -0.286 OA
ENDBRANCH  15  19
ENDBRANCH  12  15
ENDBRANCH  10  11
BRANCH  10  21
ATOM     21  CB  THR A   5     -52.617  -4.398 -18.080  0.00  0.00    +0.137 C 
ATOM     22  CG2 THR A   5     -52.922  -3.348 -16.993  0.00  0.00    +0.034 C 
BRANCH  21  23
ATOM     23  OG1 THR A   5     -52.797  -5.735 -17.590  0.00  0.00    -0.382 OA
ATOM     24  HG1 THR A   5     -52.514  -6.381 -18.285  0.00  0.00    +0.210 HD
ENDBRANCH  21  23
ENDBRANCH  10  21
ENDBRANCH   8  10
ENDBRANCH   5   6
BRANCH   5  25
ATOM     25  CB  MET A   4     -53.663  -6.506 -23.155  0.00  0.00    +0.041 C 
BRANCH  25  26
ATOM     26  CG  MET A   4     -55.120  -6.192 -23.497  0.00  0.00    +0.060 C 
BRANCH  26  27
ATOM     27  SD  MET A   4     -55.367  -5.795 -25.241  0.00  0.00    -0.139 S 
ATOM     28  CE  MET A   4     -54.876  -4.162 -25.284  0.00  0.00    +0.069 C 
ENDBRANCH  26  27
ENDBRANCH  25  26
ENDBRANCH   5  25
ENDBRANCH   2   5
BRANCH   1  29
ATOM     29  CA  GLY A   3     -54.328 -10.893 -22.057  0.00  0.00    +0.176 C 
BRANCH  29  31
ATOM     30  C   VAL A   2     -55.562 -11.174 -24.158  0.00  0.00    +0.241 C 
ATOM     31  N   GLY A   3     -54.630 -11.587 -23.306  0.00  0.00    -0.295 N 
ATOM     32  H   GLY A   3     -54.090 -12.445 -23.539  0.00  0.00    +0.150 HD
ATOM     33  O   VAL A   2     -56.239 -10.167 -23.991  0.00  0.00    -0.273 OA
BRANCH  30  34
ATOM     34  CA  VAL A   2     -55.756 -11.992 -25.434  0.00  0.00    +0.148 C 
BRANCH  34  36
ATOM     35  C   PHE A   1     -53.725 -11.932 -26.843  0.00  0.00    +0.239 C 
ATOM     36  N   VAL A   2     -54.530 -12.571 -25.991  0.00  0.00    -0.297 N 
ATOM     37  H   VAL A   2     -54.272 -13.537 -25.705  0.00  0.00    +0.150 HD
ATOM     38  O   PHE A   1     -53.939 -10.786 -27.251  0.00  0.00    -0.274 OA
BRANCH  35  39
ATOM     39  CA  PHE A   1     -52.539 -12.744 -27.345  0.00  0.00    +0.149 C 
BRANCH  39  40
ATOM     40  N   PHE A   1     -52.961 -13.543 -28.502  0.00  0.00    -0.238 NA
ATOM     41  H   PHE A   1     -53.016 -13.079 -29.431  0.00  0.00    +0.142 HD
ENDBRANCH  39  40
BRANCH  39  42
ATOM     42  CB  PHE A   1     -51.313 -11.868 -27.690  0.00  0.00    +0.053 C 
BRANCH  42  43
ATOM     43  CG  PHE A   1     -50.152 -12.662 -28.242  0.00  0.00    -0.020 A 
ATOM     44  CD2 PHE A   1     -49.379 -13.465 -27.412  0.00  0.00    -0.004 A 
ATOM     45  CE2 PHE A   1     -48.331 -14.227 -27.929  0.00  0.00    -0.000 A 
ATOM     46  CZ  PHE A   1     -48.039 -14.176 -29.275  0.00  0.00    -0.000 A 
ATOM     47  CE1 PHE A   1     -48.782 -13.373 -30.111  0.00  0.00    -0.000 A 
ATOM     48  CD1 PHE A   1     -49.850 -12.631 -29.597  0.00  0.00    -0.004 A 
ENDBRANCH  42  43
ENDBRANCH  39  42
ENDBRANCH  35  39
ENDBRANCH  34  36
BRANCH  34  49
ATOM     49  CB  VAL A   2     -56.933 -13.003 -25.350  0.00  0.00    +0.027 C 
ATOM     50  CG2 VAL A   2     -56.512 -14.305 -24.660  0.00  0.00    +0.002 C 
ATOM     51  CG1 VAL A   2     -57.506 -13.278 -26.732  0.00  0.00    +0.002 C 
ENDBRANCH  34  49
ENDBRANCH  30  34
ENDBRANCH  29  31
ENDBRANCH   1  29
TORSDOF 21
REMARK  Name = ../refined-set-2016/3ta0/3ta0_pocket.pdb
REMARK  214 active torsions:
REMARK  status: ('A' for Active; 'I' for Inactive)
REMARK    1  A    between atoms: _1  and  _3
REMARK    2  A    between atoms: _3  and  _4
REMARK    3  A    between atoms: _7  and  _9
REMARK    4  A    between atoms: _9  and  _10
REMARK    5  A    between atoms: _9  and  _12
REMARK    6  A    between atoms: _15  and  _17
REMARK    7  A    between atoms: _17  and  _18
REMARK    8  A    between atoms: _17  and  _20
REMARK    9  A    between atoms: _20  and  _21
REMARK   10  A    between atoms: _24  and  _26
REMARK   11  A    between atoms: _26  and  _27
REMARK   12  A    between atoms: _26  and  _29
REMARK   13  A    between atoms: _29  and  _30
REMARK   14  A    between atoms: _30  and  _31
REMARK   15  A    between atoms: _31  and  _32
REMARK   16  A    between atoms: _41  and  _43
REMARK   17  A    between atoms: _43  and  _44
REMARK   18  A    between atoms: _43  and  _46
REMARK   19  A    between atoms: _49  and  _51
REMARK   20  A    between atoms: _51  and  _52
REMARK   21  A    between atoms: _51  and  _54
REMARK   22  A    between atoms: _54  and  _55
REMARK   23  A    between atoms: _55  and  _56
REMARK   24  A    between atoms: _56  and  _57
REMARK   25  A    between atoms: _57  and  _58
REMARK   26  A    between atoms: _62  and  _64
REMARK   27  A    between atoms: _64  and  _65
REMARK   28  A    between atoms: _67  and  _69
REMARK   29  A    between atoms: _69  and  _70
REMARK   30  A    between atoms: _69  and  _72
REMARK   31  A    between atoms: _72  and  _73
REMARK   32  A    between atoms: _73  and  _74
REMARK   33  A    between atoms: _74  and  _75
REMARK   34  A    between atoms: _84  and  _86
REMARK   35  A    between atoms: _86  and  _87
REMARK   36  A    between atoms: _89  and  _91
REMARK   37  A    between atoms: _91  and  _92
REMARK   38  A    between atoms: _91  and  _94
REMARK   39  A    between atoms: _94  and  _95
REMARK   40  A    between atoms: _95  and  _96
REMARK   41  A    between atoms: _99  and  _101
REMARK   42  A    between atoms: _101  and  _102
REMARK   43  A    between atoms: _101  and  _104
REMARK   44  A    between atoms: _104  and  _105
REMARK   45  A    between atoms: _105  and  _106
REMARK   46  A    between atoms: _111  and  _113
REMARK   47  A    between atoms: _113  and  _114
REMARK   48  A    between atoms: _113  and  _116
REMARK   49  A    between atoms: _116  and  _117
REMARK   50  A    between atoms: _120  and  _122
REMARK   51  A    between atoms: _122  and  _123
REMARK   52  A    between atoms: _122  and  _125
REMARK   53  A    between atoms: _125  and  _126
REMARK   54  A    between atoms: _129  and  _131
REMARK   55  A    between atoms: _131  and  _132
REMARK   56  A    between atoms: _131  and  _134
REMARK   57  A    between atoms: _134  and  _135
REMARK   58  A    between atoms: _138  and  _140
REMARK   59  A    between atoms: _140  and  _141
REMARK   60  A    between atoms: _140  and  _143
REMARK   61  A    between atoms: _143  and  _144
REMARK   62  A    between atoms: _144  and  _145
REMARK   63  A    between atoms: _150  and  _152
REMARK   64  A    between atoms: _152  and  _153
REMARK   65  A    between atoms: _152  and  _155
REMARK   66  A    between atoms: _155  and  _156
REMARK   67  A    between atoms: _156  and  _157
REMARK   68  A    between atoms: _157  and  _158
REMARK   69  A    between atoms: _158  and  _159
REMARK   70  A    between atoms: _163  and  _165
REMARK   71  A    between atoms: _165  and  _166
REMARK   72  A    between atoms: _165  and  _168
REMARK   73  A    between atoms: _168  and  _169
REMARK   74  A    between atoms: _172  and  _174
REMARK   75  A    between atoms: _174  and  _175
REMARK   76  A    between atoms: _174  and  _177
REMARK   77  A    between atoms: _177  and  _178
REMARK   78  A    between atoms: _178  and  _179
REMARK   79  A    between atoms: _179  and  _180
REMARK   80  A    between atoms: _180  and  _181
REMARK   81  A    between atoms: _185  and  _187
REMARK   82  A    between atoms: _187  and  _188
REMARK   83  A    between atoms: _187  and  _190
REMARK   84  A    between atoms: _190  and  _191
REMARK   85  A    between atoms: _194  and  _196
REMARK   86  A    between atoms: _196  and  _197
REMARK   87  A    between atoms: _199  and  _201
REMARK   88  A    between atoms: _201  and  _202
REMARK   89  A    between atoms: _201  and  _204
REMARK   90  A    between atoms: _204  and  _205
REMARK   91  A    between atoms: _205  and  _206
REMARK   92  A    between atoms: _206  and  _207
REMARK   93  A    between atoms: _207  and  _208
REMARK   94  A    between atoms: _212  and  _214
REMARK   95  A    between atoms: _214  and  _215
REMARK   96  A    between atoms: _214  and  _217
REMARK   97  A    between atoms: _217  and  _218
REMARK   98  A    between atoms: _224  and  _226
REMARK   99  A    between atoms: _226  and  _227
REMARK  100  A    between atoms: _229  and  _231
REMARK  101  A    between atoms: _231  and  _232
REMARK  102  A    between atoms: _231  and  _234
REMARK  103  A    between atoms: _234  and  _235
REMARK  104  A    between atoms: _238  and  _240
REMARK  105  A    between atoms: _240  and  _241
REMARK  106  A    between atoms: _243  and  _245
REMARK  107  A    between atoms: _245  and  _246
REMARK  108  A    between atoms: _245  and  _248
REMARK  109  A    between atoms: _248  and  _249
REMARK  110  A    between atoms: _249  and  _250
REMARK  111  A    between atoms: _250  and  _251
REMARK  112  A    between atoms: _260  and  _262
REMARK  113  A    between atoms: _262  and  _263
REMARK  114  A    between atoms: _262  and  _265
REMARK  115  A    between atoms: _265  and  _266
REMARK  116  A    between atoms: _269  and  _271
REMARK  117  A    between atoms: _271  and  _272
REMARK  118  A    between atoms: _271  and  _274
REMARK  119  A    between atoms: _274  and  _275
REMARK  120  A    between atoms: _281  and  _285
REMARK  121  A    between atoms: _285  and  _286
REMARK  122  A    between atoms: _285  and  _288
REMARK  123  A    between atoms: _288  and  _289
REMARK  124  A    between atoms: _289  and  _290
REMARK  125  A    between atoms: _292  and  _294
REMARK  126  A    between atoms: _294  and  _295
REMARK  127  A    between atoms: _294  and  _297
REMARK  128  A    between atoms: _297  and  _298
REMARK  129  A    between atoms: _298  and  _299
REMARK  130  A    between atoms: _299  and  _300
REMARK  131  A    between atoms: _300  and  _301
REMARK  132  A    between atoms: _305  and  _307
REMARK  133  A    between atoms: _307  and  _308
REMARK  134  A    between atoms: _307  and  _310
REMARK  135  A    between atoms: _310  and  _311
REMARK  136  A    between atoms: _311  and  _312
REMARK  137  A    between atoms: _314  and  _316
REMARK  138  A    between atoms: _316  and  _317
REMARK  139  A    between atoms: _316  and  _319
REMARK  140  A    between atoms: _322  and  _324
REMARK  141  A    between atoms: _324  and  _325
REMARK  142  A    between atoms: _324  and  _327
REMARK  143  A    between atoms: _327  and  _328
REMARK  144  A    between atoms: _334  and  _336
REMARK  145  A    between atoms: _336  and  _337
REMARK  146  A    between atoms: _336  and  _339
REMARK  147  A    between atoms: _342  and  _344
REMARK  148  A    between atoms: _344  and  _345
REMARK  149  A    between atoms: _347  and  _349
REMARK  150  A    between atoms: _349  and  _350
REMARK  151  A    between atoms: _349  and  _352
REMARK  152  A    between atoms: _352  and  _353
REMARK  153  A    between atoms: _353  and  _354
REMARK  154  A    between atoms: _356  and  _358
REMARK  155  A    between atoms: _358  and  _359
REMARK  156  A    between atoms: _358  and  _361
REMARK  157  A    between atoms: _361  and  _362
REMARK  158  A    between atoms: _365  and  _367
REMARK  159  A    between atoms: _367  and  _368
REMARK  160  A    between atoms: _367  and  _370
REMARK  161  A    between atoms: _373  and  _375
REMARK  162  A    between atoms: _375  and  _376
REMARK  163  A    between atoms: _375  and  _378
REMARK  164  A    between atoms: _381  and  _383
REMARK  165  A    between atoms: _383  and  _384
REMARK  166  A    between atoms: _383  and  _386
REMARK  167  A    between atoms: _386  and  _387
REMARK  168  A    between atoms: _387  and  _388
REMARK  169  A    between atoms: _391  and  _393
REMARK  170  A    between atoms: _393  and  _394
REMARK  171  A    between atoms: _393  and  _396
REMARK  172  A    between atoms: _399  and  _401
REMARK  173  A    between atoms: _401  and  _402
REMARK  174  A    between atoms: _401  and  _404
REMARK  175  A    between atoms: _407  and  _409
REMARK  176  A    between atoms: _409  and  _410
REMARK  177  A    between atoms: _409  and  _412
REMARK  178  A    between atoms: _415  and  _417
REMARK  179  A    between atoms: _417  and  _418
REMARK  180  A    between atoms: _417  and  _420
REMARK  181  A    between atoms: _420  and  _421
REMARK  182  A    between atoms: _423  and  _425
REMARK  183  A    between atoms: _425  and  _426
REMARK  184  A    between atoms: _425  and  _428
REMARK  185  A    between atoms: _428  and  _429
REMARK  186  A    between atoms: _431  and  _433
REMARK  187  A    between atoms: _433  and  _434
REMARK  188  A    between atoms: _433  and  _436
REMARK  189  A    between atoms: _439  and  _441
REMARK  190  A    between atoms: _441  and  _442
REMARK  191  A    between atoms: _441  and  _444
REMARK  192  A    between atoms: _444  and  _445
REMARK  193  A    between atoms: _445  and  _446
REMARK  194  A    between atoms: _446  and  _447
REMARK  195  A    between atoms: _447  and  _448
REMARK  196  A    between atoms: _452  and  _454
REMARK  197  A    between atoms: _454  and  _455
REMARK  198  A    between atoms: _454  and  _457
REMARK  199  A    between atoms: _457  and  _458
REMARK  200  A    between atoms: _461  and  _463
REMARK  201  A    between atoms: _463  and  _464
REMARK  202  A    between atoms: _463  and  _466
REMARK  203  A    between atoms: _466  and  _467
REMARK  204  A    between atoms: _467  and  _468
REMARK  205  A    between atoms: _468  and  _469
REMARK  206  A    between atoms: _478  and  _480
REMARK  207  A    between atoms: _480  and  _481
REMARK  208  A    between atoms: _480  and  _483
REMARK  209  A    between atoms: _483  and  _484
REMARK  210  A    between atoms: _487  and  _489
REMARK  211  A    between atoms: _489  and  _490
REMARK  212  A    between atoms: _489  and  _492
REMARK  213  A    between atoms: _492  and  _493
REMARK  214  A    between atoms: _493  and  _494
REMARK                            x       y       z     vdW  Elec       q    Type
REMARK                         _______ _______ _______ _____ _____    ______ ____
ROOT
ATOM      1  C   VAL A   3     -47.468  -8.425 -22.068  0.00  0.00    +0.241 C 
ATOM      2  N   VAL A   4     -47.721  -9.325 -21.141  0.00  0.00    -0.297 N 
ATOM      3  H   VAL A   4     -48.687  -9.394 -20.762  0.00  0.00    +0.150 HD
ATOM      4  O   VAL A   3     -46.341  -8.240 -22.534  0.00  0.00    -0.273 OA
ENDROOT
BRANCH   1   5
ATOM      5  CA  VAL A   3     -48.670  -7.579 -22.528  0.00  0.00    +0.149 C 
BRANCH   5   8
ATOM      6  C   GLU A   2     -49.236  -5.334 -21.700  0.00  0.00    +0.241 C 
ATOM      7  O   GLU A   2     -50.373  -5.668 -21.392  0.00  0.00    -0.273 OA
ATOM      8  N   VAL A   3     -48.362  -6.169 -22.276  0.00  0.00    -0.297 N 
ATOM      9  H   VAL A   3     -47.429  -5.803 -22.555  0.00  0.00    +0.150 HD
BRANCH   6  10
ATOM     10  CA  GLU A   2     -48.773  -3.910 -21.452  0.00  0.00    +0.149 C 
BRANCH  10  12
ATOM     11  C   VAL A   1     -49.488  -2.171 -23.054  0.00  0.00    +0.238 C 
ATOM     12  N   GLU A   2     -49.751  -2.977 -22.011  0.00  0.00    -0.297 N 
ATOM     13  H   GLU A   2     -50.697  -2.935 -21.580  0.00  0.00    +0.150 HD
ATOM     14  O   VAL A   1     -48.400  -2.135 -23.624  0.00  0.00    -0.274 OA
BRANCH  11  15
ATOM     15  CA  VAL A   1     -50.625  -1.279 -23.552  0.00  0.00    +0.145 C 
BRANCH  15  16
ATOM     16  CB  VAL A   1     -51.052  -1.662 -25.014  0.00  0.00    +0.025 C 
ATOM     17  CG2 VAL A   1     -51.547  -3.108 -25.090  0.00  0.00    +0.002 C 
ATOM     18  CG1 VAL A   1     -52.108  -0.702 -25.567  0.00  0.00    +0.002 C 
ENDBRANCH  15  16
BRANCH  15  19
ATOM     19  N   VAL A   1     -50.164   0.096 -23.451  0.00  0.00    -0.238 NA
ATOM     20  H   VAL A   1     -49.325   0.367 -24.003  0.00  0.00    +0.142 HD
ENDBRANCH  15  19
ENDBRANCH  11  15
ENDBRANCH  10  12
BRANCH  10  21
ATOM     21  CB  GLU A   2     -48.534  -3.683 -19.937  0.00  0.00    +0.041 C 
BRANCH  21  22
ATOM     22  CG  GLU A   2     -48.004  -2.306 -19.583  0.00  0.00    +0.116 C 
BRANCH  22  23
ATOM     23  CD  GLU A   2     -47.999  -1.988 -18.099  0.00  0.00    +0.365 C 
ATOM     24  OE2 GLU A   2     -49.087  -2.025 -17.476  0.00  0.00    -0.246 OA
ATOM     25  OE1 GLU A   2     -46.913  -1.658 -17.570  0.00  0.00    -0.246 OA
ENDBRANCH  22  23
ENDBRANCH  21  22
ENDBRANCH  10  21
ENDBRANCH   6  10
ENDBRANCH   5   8
BRANCH   5  26
ATOM     26  CB  VAL A   3     -49.113  -7.892 -24.010  0.00  0.00    +0.027 C 
ATOM     27  CG2 VAL A   3     -49.489  -9.348 -24.222  0.00  0.00    +0.002 C 
ATOM     28  CG1 VAL A   3     -50.197  -6.944 -24.525  0.00  0.00    +0.002 C 
ENDBRANCH   5  26
ENDBRANCH   1   5
BRANCH   2  29
ATOM     29  CA  VAL A   4     -46.703 -10.226 -20.626  0.00  0.00    +0.149 C 
BRANCH  29  30
ATOM     30  C   VAL A   4     -46.795 -11.523 -21.425  0.00  0.00    +0.241 C 
ATOM     31  O   VAL A   4     -47.850 -12.162 -21.462  0.00  0.00    -0.273 OA
ATOM     32  N   VAL A   5     -45.702 -11.876 -22.096  0.00  0.00    -0.297 N 
ATOM     33  H   VAL A   5     -44.862 -11.269 -22.006  0.00  0.00    +0.150 HD
BRANCH  32  34
ATOM     34  CA  VAL A   5     -45.597 -13.068 -22.959  0.00  0.00    +0.149 C 
BRANCH  34  35
ATOM     35  C   VAL A   5     -44.319 -13.833 -22.677  0.00  0.00    +0.241 C 
ATOM     36  O   VAL A   5     -43.410 -13.296 -22.035  0.00  0.00    -0.273 OA
ATOM     37  N   SER A   6     -44.226 -15.073 -23.203  0.00  0.00    -0.296 N 
ATOM     38  H   SER A   6     -45.051 -15.467 -23.698  0.00  0.00    +0.150 HD
BRANCH  37  39
ATOM     39  CA  SER A   6     -43.014 -15.885 -23.106  0.00  0.00    +0.166 C 
BRANCH  39  40
ATOM     40  C   SER A   6     -41.970 -15.291 -24.073  0.00  0.00    +0.229 C 
ATOM     41  O   SER A   6     -42.343 -14.607 -25.032  0.00  0.00    -0.286 OA
ENDBRANCH  39  40
BRANCH  39  42
ATOM     42  CB  SER A   6     -43.314 -17.339 -23.454  0.00  0.00    +0.165 C 
BRANCH  42  43
ATOM     43  OG  SER A   6     -43.772 -17.481 -24.784  0.00  0.00    -0.380 OA
ATOM     44  H   SER A   6     -43.955 -18.436 -24.969  0.00  0.00    +0.211 HD
ENDBRANCH  42  43
ENDBRANCH  39  42
ENDBRANCH  37  39
ENDBRANCH  34  35
BRANCH  34  45
ATOM     45  CB  VAL A   5     -45.679 -12.702 -24.470  0.00  0.00    +0.027 C 
ATOM     46  CG2 VAL A   5     -47.068 -12.209 -24.853  0.00  0.00    +0.002 C 
ATOM     47  CG1 VAL A   5     -44.612 -11.682 -24.875  0.00  0.00    +0.002 C 
ENDBRANCH  34  45
ENDBRANCH  32  34
ENDBRANCH  29  30
BRANCH  29  48
ATOM     48  CB  VAL A   4     -46.781 -10.423 -19.082  0.00  0.00    +0.027 C 
ATOM     49  CG2 VAL A   4     -46.539  -9.106 -18.351  0.00  0.00    +0.002 C 
ATOM     50  CG1 VAL A   4     -45.795 -11.488 -18.601  0.00  0.00    +0.002 C 
ENDBRANCH  29  48
ENDBRANCH   2  29
TORSDOF 21
REMARK  Name = ../refined-set-2016/3ta0/3ta0_pocket.pdb
REMARK  214 active torsions:
REMARK  status: ('A' for Active; 'I' for Inactive)
REMARK    1  A    between atoms: _1  and  _3
REMARK    2  A    between atoms: _3  and  _4
REMARK    3  A    between atoms: _7  and  _9
REMARK    4  A    between atoms: _9  and  _10
REMARK    5  A    between atoms: _9  and  _12
REMARK    6  A    between atoms: _15  and  _17
REMARK    7  A    between atoms: _17  and  _18
REMARK    8  A    between atoms: _17  and  _20
REMARK    9  A    between atoms: _20  and  _21
REMARK   10  A    between atoms: _24  and  _26
REMARK   11  A    between atoms: _26  and  _27
REMARK   12  A    between atoms: _26  and  _29
REMARK   13  A    between atoms: _29  and  _30
REMARK   14  A    between atoms: _30  and  _31
REMARK   15  A    between atoms: _31  and  _32
REMARK   16  A    between atoms: _41  and  _43
REMARK   17  A    between atoms: _43  and  _44
REMARK   18  A    between atoms: _43  and  _46
REMARK   19  A    between atoms: _49  and  _51
REMARK   20  A    between atoms: _51  and  _52
REMARK   21  A    between atoms: _51  and  _54
REMARK   22  A    between atoms: _54  and  _55
REMARK   23  A    between atoms: _55  and  _56
REMARK   24  A    between atoms: _56  and  _57
REMARK   25  A    between atoms: _57  and  _58
REMARK   26  A    between atoms: _62  and  _64
REMARK   27  A    between atoms: _64  and  _65
REMARK   28  A    between atoms: _67  and  _69
REMARK   29  A    between atoms: _69  and  _70
REMARK   30  A    between atoms: _69  and  _72
REMARK   31  A    between atoms: _72  and  _73
REMARK   32  A    between atoms: _73  and  _74
REMARK   33  A    between atoms: _74  and  _75
REMARK   34  A    between atoms: _84  and  _86
REMARK   35  A    between atoms: _86  and  _87
REMARK   36  A    between atoms: _89  and  _91
REMARK   37  A    between atoms: _91  and  _92
REMARK   38  A    between atoms: _91  and  _94
REMARK   39  A    between atoms: _94  and  _95
REMARK   40  A    between atoms: _95  and  _96
REMARK   41  A    between atoms: _99  and  _101
REMARK   42  A    between atoms: _101  and  _102
REMARK   43  A    between atoms: _101  and  _104
REMARK   44  A    between atoms: _104  and  _105
REMARK   45  A    between atoms: _105  and  _106
REMARK   46  A    between atoms: _111  and  _113
REMARK   47  A    between atoms: _113  and  _114
REMARK   48  A    between atoms: _113  and  _116
REMARK   49  A    between atoms: _116  and  _117
REMARK   50  A    between atoms: _120  and  _122
REMARK   51  A    between atoms: _122  and  _123
REMARK   52  A    between atoms: _122  and  _125
REMARK   53  A    between atoms: _125  and  _126
REMARK   54  A    between atoms: _129  and  _131
REMARK   55  A    between atoms: _131  and  _132
REMARK   56  A    between atoms: _131  and  _134
REMARK   57  A    between atoms: _134  and  _135
REMARK   58  A    between atoms: _138  and  _140
REMARK   59  A    between atoms: _140  and  _141
REMARK   60  A    between atoms: _140  and  _143
REMARK   61  A    between atoms: _143  and  _144
REMARK   62  A    between atoms: _144  and  _145
REMARK   63  A    between atoms: _150  and  _152
REMARK   64  A    between atoms: _152  and  _153
REMARK   65  A    between atoms: _152  and  _155
REMARK   66  A    between atoms: _155  and  _156
REMARK   67  A    between atoms: _156  and  _157
REMARK   68  A    between atoms: _157  and  _158
REMARK   69  A    between atoms: _158  and  _159
REMARK   70  A    between atoms: _163  and  _165
REMARK   71  A    between atoms: _165  and  _166
REMARK   72  A    between atoms: _165  and  _168
REMARK   73  A    between atoms: _168  and  _169
REMARK   74  A    between atoms: _172  and  _174
REMARK   75  A    between atoms: _174  and  _175
REMARK   76  A    between atoms: _174  and  _177
REMARK   77  A    between atoms: _177  and  _178
REMARK   78  A    between atoms: _178  and  _179
REMARK   79  A    between atoms: _179  and  _180
REMARK   80  A    between atoms: _180  and  _181
REMARK   81  A    between atoms: _185  and  _187
REMARK   82  A    between atoms: _187  and  _188
REMARK   83  A    between atoms: _187  and  _190
REMARK   84  A    between atoms: _190  and  _191
REMARK   85  A    between atoms: _194  and  _196
REMARK   86  A    between atoms: _196  and  _197
REMARK   87  A    between atoms: _199  and  _201
REMARK   88  A    between atoms: _201  and  _202
REMARK   89  A    between atoms: _201  and  _204
REMARK   90  A    between atoms: _204  and  _205
REMARK   91  A    between atoms: _205  and  _206
REMARK   92  A    between atoms: _206  and  _207
REMARK   93  A    between atoms: _207  and  _208
REMARK   94  A    between atoms: _212  and  _214
REMARK   95  A    between atoms: _214  and  _215
REMARK   96  A    between atoms: _214  and  _217
REMARK   97  A    between atoms: _217  and  _218
REMARK   98  A    between atoms: _224  and  _226
REMARK   99  A    between atoms: _226  and  _227
REMARK  100  A    between atoms: _229  and  _231
REMARK  101  A    between atoms: _231  and  _232
REMARK  102  A    between atoms: _231  and  _234
REMARK  103  A    between atoms: _234  and  _235
REMARK  104  A    between atoms: _238  and  _240
REMARK  105  A    between atoms: _240  and  _241
REMARK  106  A    between atoms: _243  and  _245
REMARK  107  A    between atoms: _245  and  _246
REMARK  108  A    between atoms: _245  and  _248
REMARK  109  A    between atoms: _248  and  _249
REMARK  110  A    between atoms: _249  and  _250
REMARK  111  A    between atoms: _250  and  _251
REMARK  112  A    between atoms: _260  and  _262
REMARK  113  A    between atoms: _262  and  _263
REMARK  114  A    between atoms: _262  and  _265
REMARK  115  A    between atoms: _265  and  _266
REMARK  116  A    between atoms: _269  and  _271
REMARK  117  A    between atoms: _271  and  _272
REMARK  118  A    between atoms: _271  and  _274
REMARK  119  A    between atoms: _274  and  _275
REMARK  120  A    between atoms: _281  and  _285
REMARK  121  A    between atoms: _285  and  _286
REMARK  122  A    between atoms: _285  and  _288
REMARK  123  A    between atoms: _288  and  _289
REMARK  124  A    between atoms: _289  and  _290
REMARK  125  A    between atoms: _292  and  _294
REMARK  126  A    between atoms: _294  and  _295
REMARK  127  A    between atoms: _294  and  _297
REMARK  128  A    between atoms: _297  and  _298
REMARK  129  A    between atoms: _298  and  _299
REMARK  130  A    between atoms: _299  and  _300
REMARK  131  A    between atoms: _300  and  _301
REMARK  132  A    between atoms: _305  and  _307
REMARK  133  A    between atoms: _307  and  _308
REMARK  134  A    between atoms: _307  and  _310
REMARK  135  A    between atoms: _310  and  _311
REMARK  136  A    between atoms: _311  and  _312
REMARK  137  A    between atoms: _314  and  _316
REMARK  138  A    between atoms: _316  and  _317
REMARK  139  A    between atoms: _316  and  _319
REMARK  140  A    between atoms: _322  and  _324
REMARK  141  A    between atoms: _324  and  _325
REMARK  142  A    between atoms: _324  and  _327
REMARK  143  A    between atoms: _327  and  _328
REMARK  144  A    between atoms: _334  and  _336
REMARK  145  A    between atoms: _336  and  _337
REMARK  146  A    between atoms: _336  and  _339
REMARK  147  A    between atoms: _342  and  _344
REMARK  148  A    between atoms: _344  and  _345
REMARK  149  A    between atoms: _347  and  _349
REMARK  150  A    between atoms: _349  and  _350
REMARK  151  A    between atoms: _349  and  _352
REMARK  152  A    between atoms: _352  and  _353
REMARK  153  A    between atoms: _353  and  _354
REMARK  154  A    between atoms: _356  and  _358
REMARK  155  A    between atoms: _358  and  _359
REMARK  156  A    between atoms: _358  and  _361
REMARK  157  A    between atoms: _361  and  _362
REMARK  158  A    between atoms: _365  and  _367
REMARK  159  A    between atoms: _367  and  _368
REMARK  160  A    between atoms: _367  and  _370
REMARK  161  A    between atoms: _373  and  _375
REMARK  162  A    between atoms: _375  and  _376
REMARK  163  A    between atoms: _375  and  _378
REMARK  164  A    between atoms: _381  and  _383
REMARK  165  A    between atoms: _383  and  _384
REMARK  166  A    between atoms: _383  and  _386
REMARK  167  A    between atoms: _386  and  _387
REMARK  168  A    between atoms: _387  and  _388
REMARK  169  A    between atoms: _391  and  _393
REMARK  170  A    between atoms: _393  and  _394
REMARK  171  A    between atoms: _393  and  _396
REMARK  172  A    between atoms: _399  and  _401
REMARK  173  A    between atoms: _401  and  _402
REMARK  174  A    between atoms: _401  and  _404
REMARK  175  A    between atoms: _407  and  _409
REMARK  176  A    between atoms: _409  and  _410
REMARK  177  A    between atoms: _409  and  _412
REMARK  178  A    between atoms: _415  and  _417
REMARK  179  A    between atoms: _417  and  _418
REMARK  180  A    between atoms: _417  and  _420
REMARK  181  A    between atoms: _420  and  _421
REMARK  182  A    between atoms: _423  and  _425
REMARK  183  A    between atoms: _425  and  _426
REMARK  184  A    between atoms: _425  and  _428
REMARK  185  A    between atoms: _428  and  _429
REMARK  186  A    between atoms: _431  and  _433
REMARK  187  A    between atoms: _433  and  _434
REMARK  188  A    between atoms: _433  and  _436
REMARK  189  A    between atoms: _439  and  _441
REMARK  190  A    between atoms: _441  and  _442
REMARK  191  A    between atoms: _441  and  _444
REMARK  192  A    between atoms: _444  and  _445
REMARK  193  A    between atoms: _445  and  _446
REMARK  194  A    between atoms: _446  and  _447
REMARK  195  A    between atoms: _447  and  _448
REMARK  196  A    between atoms: _452  and  _454
REMARK  197  A    between atoms: _454  and  _455
REMARK  198  A    between atoms: _454  and  _457
REMARK  199  A    between atoms: _457  and  _458
REMARK  200  A    between atoms: _461  and  _463
REMARK  201  A    between atoms: _463  and  _464
REMARK  202  A    between atoms: _463  and  _466
REMARK  203  A    between atoms: _466  and  _467
REMARK  204  A    between atoms: _467  and  _468
REMARK  205  A    between atoms: _468  and  _469
REMARK  206  A    between atoms: _478  and  _480
REMARK  207  A    between atoms: _480  and  _481
REMARK  208  A    between atoms: _480  and  _483
REMARK  209  A    between atoms: _483  and  _484
REMARK  210  A    between atoms: _487  and  _489
REMARK  211  A    between atoms: _489  and  _490
REMARK  212  A    between atoms: _489  and  _492
REMARK  213  A    between atoms: _492  and  _493
REMARK  214  A    between atoms: _493  and  _494
REMARK                            x       y       z     vdW  Elec       q    Type
REMARK                         _______ _______ _______ _____ _____    ______ ____
ROOT
ATOM      1  CA  ILE A   4     -53.936 -15.017  -8.452  0.00  0.00    +0.149 C 
ENDROOT
BRANCH   1   4
ATOM      2  C   LYS A   3     -52.659 -16.338 -10.132  0.00  0.00    +0.241 C 
ATOM      3  O   LYS A   3     -52.488 -17.289  -9.371  0.00  0.00    -0.273 OA
ATOM      4  N   ILE A   4     -53.304 -15.210  -9.765  0.00  0.00    -0.297 N 
ATOM      5  H   ILE A   4     -53.357 -14.431 -10.452  0.00  0.00    +0.150 HD
BRANCH   2   6
ATOM      6  CA  LYS A   3     -52.035 -16.377 -11.526  0.00  0.00    +0.149 C 
BRANCH   6   8
ATOM      7  C   VAL A   2     -49.796 -15.354 -11.196  0.00  0.00    +0.241 C 
ATOM      8  N   LYS A   3     -50.587 -16.444 -11.318  0.00  0.00    -0.297 N 
ATOM      9  H   LYS A   3     -50.142 -17.382 -11.261  0.00  0.00    +0.150 HD
ATOM     10  O   VAL A   2     -50.202 -14.200 -11.325  0.00  0.00    -0.273 OA
BRANCH   7  11
ATOM     11  CA  VAL A   2     -48.324 -15.603 -10.887  0.00  0.00    +0.148 C 
BRANCH  11  13
ATOM     12  C   SER A   1     -46.652 -15.420 -12.670  0.00  0.00    +0.241 C 
ATOM     13  N   VAL A   2     -47.459 -14.824 -11.777  0.00  0.00    -0.297 N 
ATOM     14  H   VAL A   2     -47.470 -13.786 -11.716  0.00  0.00    +0.150 HD
ATOM     15  O   SER A   1     -46.587 -16.647 -12.787  0.00  0.00    -0.274 OA
BRANCH  12  16
ATOM     16  CA  SER A   1     -45.706 -14.523 -13.492  0.00  0.00    +0.174 C 
BRANCH  16  17
ATOM     17  N   SER A   1     -44.329 -14.909 -13.159  0.00  0.00    -0.236 NA
ATOM     18  H   SER A   1     -44.074 -15.913 -13.255  0.00  0.00    +0.142 HD
ENDBRANCH  16  17
BRANCH  16  19
ATOM     19  CB  SER A   1     -45.961 -14.665 -14.986  0.00  0.00    +0.163 C 
BRANCH  19  20
ATOM     20  OG  SER A   1     -47.203 -14.079 -15.317  0.00  0.00    -0.380 OA
ATOM     21  H   SER A   1     -47.363 -14.175 -16.289  0.00  0.00    +0.211 HD
ENDBRANCH  19  20
ENDBRANCH  16  19
ENDBRANCH  12  16
ENDBRANCH  11  13
BRANCH  11  22
ATOM     22  CB  VAL A   2     -47.989 -15.327  -9.386  0.00  0.00    +0.027 C 
ATOM     23  CG2 VAL A   2     -48.824 -16.192  -8.457  0.00  0.00    +0.002 C 
ATOM     24  CG1 VAL A   2     -46.499 -15.527  -9.085  0.00  0.00    +0.002 C 
ENDBRANCH  11  22
ENDBRANCH   7  11
ENDBRANCH   6   8
BRANCH   6  25
ATOM     25  CB  LYS A   3     -52.552 -17.601 -12.311  0.00  0.00    +0.029 C 
BRANCH  25  26
ATOM     26  CG  LYS A   3     -52.560 -17.427 -13.831  0.00  0.00    +0.000 C 
BRANCH  26  27
ATOM     27  CD  LYS A   3     -52.947 -18.725 -14.571  0.00  0.00    -0.024 C 
BRANCH  27  28
ATOM     28  CE  LYS A   3     -51.800 -19.695 -14.850  0.00  0.00    -0.086 C 
BRANCH  28  29
ATOM     29  NZ  LYS A   3     -52.276 -21.085 -15.102  0.00  0.00    +0.380 N 
ATOM     30  HZ1 LYS A   3     -52.792 -21.430 -14.268  0.00  0.00    -0.089 HD
ATOM     31  HZ2 LYS A   3     -51.459 -21.702 -15.286  0.00  0.00    -0.089 HD
ATOM     32  HZ3 LYS A   3     -52.908 -21.089 -15.928  0.00  0.00    -0.089 HD
ENDBRANCH  28  29
ENDBRANCH  27  28
ENDBRANCH  26  27
ENDBRANCH  25  26
ENDBRANCH   6  25
ENDBRANCH   2   6
ENDBRANCH   1   4
BRANCH   1  33
ATOM     33  C   ILE A   4     -54.964 -16.131  -8.117  0.00  0.00    +0.241 C 
ATOM     34  O   ILE A   4     -54.937 -16.661  -7.009  0.00  0.00    -0.273 OA
ATOM     35  N   ARG A   5     -55.855 -16.465  -9.078  0.00  0.00    -0.297 N 
ATOM     36  H   ARG A   5     -55.782 -15.971  -9.990  0.00  0.00    +0.150 HD
BRANCH  35  37
ATOM     37  CA  ARG A   5     -56.912 -17.463  -8.938  0.00  0.00    +0.149 C 
BRANCH  37  38
ATOM     38  C   ARG A   5     -56.400 -18.828  -8.448  0.00  0.00    +0.241 C 
ATOM     39  O   ARG A   5     -56.945 -19.368  -7.485  0.00  0.00    -0.273 OA
ATOM     40  N   THR A   6     -55.330 -19.348  -9.065  0.00  0.00    -0.296 N 
ATOM     41  H   THR A   6     -54.860 -18.777  -9.796  0.00  0.00    +0.150 HD
BRANCH  40  42
ATOM     42  CA  THR A   6     -54.782 -20.681  -8.767  0.00  0.00    +0.164 C 
BRANCH  42  43
ATOM     43  CB  THR A   6     -54.527 -21.422 -10.088  0.00  0.00    +0.136 C 
ATOM     44  CG2 THR A   6     -55.741 -21.429 -11.011  0.00  0.00    +0.034 C 
BRANCH  43  45
ATOM     45  OG1 THR A   6     -53.432 -20.795 -10.757  0.00  0.00    -0.382 OA
ATOM     46  HG1 THR A   6     -53.257 -21.264 -11.611  0.00  0.00    +0.210 HD
ENDBRANCH  43  45
ENDBRANCH  42  43
BRANCH  42  47
ATOM     47  C   THR A   6     -53.509 -20.683  -7.902  0.00  0.00    +0.229 C 
ATOM     48  O   THR A   6     -53.155 -21.714  -7.332  0.00  0.00    -0.286 OA
ENDBRANCH  42  47
ENDBRANCH  40  42
ENDBRANCH  37  38
BRANCH  37  49
ATOM     49  CB  ARG A   5     -57.668 -17.603 -10.274  0.00  0.00    +0.033 C 
BRANCH  49  50
ATOM     50  CG  ARG A   5     -58.991 -18.376 -10.192  0.00  0.00    +0.045 C 
BRANCH  50  51
ATOM     51  CD  ARG A   5     -59.616 -18.544 -11.561  0.00  0.00    +0.174 C 
BRANCH  51  52
ATOM     52  NE  ARG A   5     -59.460 -19.908 -12.067  0.00  0.00    -0.265 N 
ATOM     53  HE  ARG A   5     -60.074 -20.645 -11.664  0.00  0.00    +0.259 HD
ATOM     54  CZ  ARG A   5     -58.589 -20.275 -13.006  0.00  0.00    +0.342 C 
ATOM     55  NH2 ARG A   5     -58.527 -21.535 -13.404  0.00  0.00    -0.292 N 
ATOM     56 HH21 ARG A   5     -59.160 -22.245 -12.984  0.00  0.00    +0.255 HD
ATOM     57 HH22 ARG A   5     -57.845 -21.816 -14.137  0.00  0.00    +0.255 HD
ATOM     58  NH1 ARG A   5     -57.775 -19.386 -13.550  0.00  0.00    -0.292 N 
ATOM     59 HH11 ARG A   5     -57.812 -18.392 -13.245  0.00  0.00    +0.255 HD
ATOM     60 HH12 ARG A   5     -57.098 -19.681 -14.282  0.00  0.00    +0.255 HD
ENDBRANCH  51  52
ENDBRANCH  50  51
ENDBRANCH  49  50
ENDBRANCH  37  49
ENDBRANCH  35  37
ENDBRANCH   1  33
BRANCH   1  61
ATOM     61  CB  ILE A   4     -54.525 -13.566  -8.306  0.00  0.00    +0.027 C 
ATOM     62  CG2 ILE A   4     -55.473 -13.464  -7.087  0.00  0.00    +0.002 C 
BRANCH  61  63
ATOM     63  CG1 ILE A   4     -53.384 -12.522  -8.238  0.00  0.00    +0.002 C 
ATOM     64  CD1 ILE A   4     -53.744 -11.081  -8.219  0.00  0.00    +0.000 C 
ENDBRANCH  61  63
ENDBRANCH   1  61
TORSDOF 28
REMARK  Name = ../refined-set-2016/3ta0/3ta0_pocket.pdb
REMARK  214 active torsions:
REMARK  status: ('A' for Active; 'I' for Inactive)
REMARK    1  A    between atoms: _1  and  _3
REMARK    2  A    between atoms: _3  and  _4
REMARK    3  A    between atoms: _7  and  _9
REMARK    4  A    between atoms: _9  and  _10
REMARK    5  A    between atoms: _9  and  _12
REMARK    6  A    between atoms: _15  and  _17
REMARK    7  A    between atoms: _17  and  _18
REMARK    8  A    between atoms: _17  and  _20
REMARK    9  A    between atoms: _20  and  _21
REMARK   10  A    between atoms: _24  and  _26
REMARK   11  A    between atoms: _26  and  _27
REMARK   12  A    between atoms: _26  and  _29
REMARK   13  A    between atoms: _29  and  _30
REMARK   14  A    between atoms: _30  and  _31
REMARK   15  A    between atoms: _31  and  _32
REMARK   16  A    between atoms: _41  and  _43
REMARK   17  A    between atoms: _43  and  _44
REMARK   18  A    between atoms: _43  and  _46
REMARK   19  A    between atoms: _49  and  _51
REMARK   20  A    between atoms: _51  and  _52
REMARK   21  A    between atoms: _51  and  _54
REMARK   22  A    between atoms: _54  and  _55
REMARK   23  A    between atoms: _55  and  _56
REMARK   24  A    between atoms: _56  and  _57
REMARK   25  A    between atoms: _57  and  _58
REMARK   26  A    between atoms: _62  and  _64
REMARK   27  A    between atoms: _64  and  _65
REMARK   28  A    between atoms: _67  and  _69
REMARK   29  A    between atoms: _69  and  _70
REMARK   30  A    between atoms: _69  and  _72
REMARK   31  A    between atoms: _72  and  _73
REMARK   32  A    between atoms: _73  and  _74
REMARK   33  A    between atoms: _74  and  _75
REMARK   34  A    between atoms: _84  and  _86
REMARK   35  A    between atoms: _86  and  _87
REMARK   36  A    between atoms: _89  and  _91
REMARK   37  A    between atoms: _91  and  _92
REMARK   38  A    between atoms: _91  and  _94
REMARK   39  A    between atoms: _94  and  _95
REMARK   40  A    between atoms: _95  and  _96
REMARK   41  A    between atoms: _99  and  _101
REMARK   42  A    between atoms: _101  and  _102
REMARK   43  A    between atoms: _101  and  _104
REMARK   44  A    between atoms: _104  and  _105
REMARK   45  A    between atoms: _105  and  _106
REMARK   46  A    between atoms: _111  and  _113
REMARK   47  A    between atoms: _113  and  _114
REMARK   48  A    between atoms: _113  and  _116
REMARK   49  A    between atoms: _116  and  _117
REMARK   50  A    between atoms: _120  and  _122
REMARK   51  A    between atoms: _122  and  _123
REMARK   52  A    between atoms: _122  and  _125
REMARK   53  A    between atoms: _125  and  _126
REMARK   54  A    between atoms: _129  and  _131
REMARK   55  A    between atoms: _131  and  _132
REMARK   56  A    between atoms: _131  and  _134
REMARK   57  A    between atoms: _134  and  _135
REMARK   58  A    between atoms: _138  and  _140
REMARK   59  A    between atoms: _140  and  _141
REMARK   60  A    between atoms: _140  and  _143
REMARK   61  A    between atoms: _143  and  _144
REMARK   62  A    between atoms: _144  and  _145
REMARK   63  A    between atoms: _150  and  _152
REMARK   64  A    between atoms: _152  and  _153
REMARK   65  A    between atoms: _152  and  _155
REMARK   66  A    between atoms: _155  and  _156
REMARK   67  A    between atoms: _156  and  _157
REMARK   68  A    between atoms: _157  and  _158
REMARK   69  A    between atoms: _158  and  _159
REMARK   70  A    between atoms: _163  and  _165
REMARK   71  A    between atoms: _165  and  _166
REMARK   72  A    between atoms: _165  and  _168
REMARK   73  A    between atoms: _168  and  _169
REMARK   74  A    between atoms: _172  and  _174
REMARK   75  A    between atoms: _174  and  _175
REMARK   76  A    between atoms: _174  and  _177
REMARK   77  A    between atoms: _177  and  _178
REMARK   78  A    between atoms: _178  and  _179
REMARK   79  A    between atoms: _179  and  _180
REMARK   80  A    between atoms: _180  and  _181
REMARK   81  A    between atoms: _185  and  _187
REMARK   82  A    between atoms: _187  and  _188
REMARK   83  A    between atoms: _187  and  _190
REMARK   84  A    between atoms: _190  and  _191
REMARK   85  A    between atoms: _194  and  _196
REMARK   86  A    between atoms: _196  and  _197
REMARK   87  A    between atoms: _199  and  _201
REMARK   88  A    between atoms: _201  and  _202
REMARK   89  A    between atoms: _201  and  _204
REMARK   90  A    between atoms: _204  and  _205
REMARK   91  A    between atoms: _205  and  _206
REMARK   92  A    between atoms: _206  and  _207
REMARK   93  A    between atoms: _207  and  _208
REMARK   94  A    between atoms: _212  and  _214
REMARK   95  A    between atoms: _214  and  _215
REMARK   96  A    between atoms: _214  and  _217
REMARK   97  A    between atoms: _217  and  _218
REMARK   98  A    between atoms: _224  and  _226
REMARK   99  A    between atoms: _226  and  _227
REMARK  100  A    between atoms: _229  and  _231
REMARK  101  A    between atoms: _231  and  _232
REMARK  102  A    between atoms: _231  and  _234
REMARK  103  A    between atoms: _234  and  _235
REMARK  104  A    between atoms: _238  and  _240
REMARK  105  A    between atoms: _240  and  _241
REMARK  106  A    between atoms: _243  and  _245
REMARK  107  A    between atoms: _245  and  _246
REMARK  108  A    between atoms: _245  and  _248
REMARK  109  A    between atoms: _248  and  _249
REMARK  110  A    between atoms: _249  and  _250
REMARK  111  A    between atoms: _250  and  _251
REMARK  112  A    between atoms: _260  and  _262
REMARK  113  A    between atoms: _262  and  _263
REMARK  114  A    between atoms: _262  and  _265
REMARK  115  A    between atoms: _265  and  _266
REMARK  116  A    between atoms: _269  and  _271
REMARK  117  A    between atoms: _271  and  _272
REMARK  118  A    between atoms: _271  and  _274
REMARK  119  A    between atoms: _274  and  _275
REMARK  120  A    between atoms: _281  and  _285
REMARK  121  A    between atoms: _285  and  _286
REMARK  122  A    between atoms: _285  and  _288
REMARK  123  A    between atoms: _288  and  _289
REMARK  124  A    between atoms: _289  and  _290
REMARK  125  A    between atoms: _292  and  _294
REMARK  126  A    between atoms: _294  and  _295
REMARK  127  A    between atoms: _294  and  _297
REMARK  128  A    between atoms: _297  and  _298
REMARK  129  A    between atoms: _298  and  _299
REMARK  130  A    between atoms: _299  and  _300
REMARK  131  A    between atoms: _300  and  _301
REMARK  132  A    between atoms: _305  and  _307
REMARK  133  A    between atoms: _307  and  _308
REMARK  134  A    between atoms: _307  and  _310
REMARK  135  A    between atoms: _310  and  _311
REMARK  136  A    between atoms: _311  and  _312
REMARK  137  A    between atoms: _314  and  _316
REMARK  138  A    between atoms: _316  and  _317
REMARK  139  A    between atoms: _316  and  _319
REMARK  140  A    between atoms: _322  and  _324
REMARK  141  A    between atoms: _324  and  _325
REMARK  142  A    between atoms: _324  and  _327
REMARK  143  A    between atoms: _327  and  _328
REMARK  144  A    between atoms: _334  and  _336
REMARK  145  A    between atoms: _336  and  _337
REMARK  146  A    between atoms: _336  and  _339
REMARK  147  A    between atoms: _342  and  _344
REMARK  148  A    between atoms: _344  and  _345
REMARK  149  A    between atoms: _347  and  _349
REMARK  150  A    between atoms: _349  and  _350
REMARK  151  A    between atoms: _349  and  _352
REMARK  152  A    between atoms: _352  and  _353
REMARK  153  A    between atoms: _353  and  _354
REMARK  154  A    between atoms: _356  and  _358
REMARK  155  A    between atoms: _358  and  _359
REMARK  156  A    between atoms: _358  and  _361
REMARK  157  A    between atoms: _361  and  _362
REMARK  158  A    between atoms: _365  and  _367
REMARK  159  A    between atoms: _367  and  _368
REMARK  160  A    between atoms: _367  and  _370
REMARK  161  A    between atoms: _373  and  _375
REMARK  162  A    between atoms: _375  and  _376
REMARK  163  A    between atoms: _375  and  _378
REMARK  164  A    between atoms: _381  and  _383
REMARK  165  A    between atoms: _383  and  _384
REMARK  166  A    between atoms: _383  and  _386
REMARK  167  A    between atoms: _386  and  _387
REMARK  168  A    between atoms: _387  and  _388
REMARK  169  A    between atoms: _391  and  _393
REMARK  170  A    between atoms: _393  and  _394
REMARK  171  A    between atoms: _393  and  _396
REMARK  172  A    between atoms: _399  and  _401
REMARK  173  A    between atoms: _401  and  _402
REMARK  174  A    between atoms: _401  and  _404
REMARK  175  A    between atoms: _407  and  _409
REMARK  176  A    between atoms: _409  and  _410
REMARK  177  A    between atoms: _409  and  _412
REMARK  178  A    between atoms: _415  and  _417
REMARK  179  A    between atoms: _417  and  _418
REMARK  180  A    between atoms: _417  and  _420
REMARK  181  A    between atoms: _420  and  _421
REMARK  182  A    between atoms: _423  and  _425
REMARK  183  A    between atoms: _425  and  _426
REMARK  184  A    between atoms: _425  and  _428
REMARK  185  A    between atoms: _428  and  _429
REMARK  186  A    between atoms: _431  and  _433
REMARK  187  A    between atoms: _433  and  _434
REMARK  188  A    between atoms: _433  and  _436
REMARK  189  A    between atoms: _439  and  _441
REMARK  190  A    between atoms: _441  and  _442
REMARK  191  A    between atoms: _441  and  _444
REMARK  192  A    between atoms: _444  and  _445
REMARK  193  A    between atoms: _445  and  _446
REMARK  194  A    between atoms: _446  and  _447
REMARK  195  A    between atoms: _447  and  _448
REMARK  196  A    between atoms: _452  and  _454
REMARK  197  A    between atoms: _454  and  _455
REMARK  198  A    between atoms: _454  and  _457
REMARK  199  A    between atoms: _457  and  _458
REMARK  200  A    between atoms: _461  and  _463
REMARK  201  A    between atoms: _463  and  _464
REMARK  202  A    between atoms: _463  and  _466
REMARK  203  A    between atoms: _466  and  _467
REMARK  204  A    between atoms: _467  and  _468
REMARK  205  A    between atoms: _468  and  _469
REMARK  206  A    between atoms: _478  and  _480
REMARK  207  A    between atoms: _480  and  _481
REMARK  208  A    between atoms: _480  and  _483
REMARK  209  A    between atoms: _483  and  _484
REMARK  210  A    between atoms: _487  and  _489
REMARK  211  A    between atoms: _489  and  _490
REMARK  212  A    between atoms: _489  and  _492
REMARK  213  A    between atoms: _492  and  _493
REMARK  214  A    between atoms: _493  and  _494
REMARK                            x       y       z     vdW  Elec       q    Type
REMARK                         _______ _______ _______ _____ _____    ______ ____
ROOT
ATOM      1  CA  GLU A   1     -44.835 -19.258 -14.509  0.00  0.00    +0.134 C 
ENDROOT
BRANCH   1   2
ATOM      2  N   GLU A   1     -45.541 -19.064 -13.248  0.00  0.00    -0.239 NA
ATOM      3  H   GLU A   1     -45.973 -18.134 -13.075  0.00  0.00    +0.142 HD
ENDBRANCH   1   2
BRANCH   1   4
ATOM      4  C   GLU A   1     -43.443 -18.607 -14.381  0.00  0.00    +0.224 C 
ATOM      5  O   GLU A   1     -43.332 -17.430 -14.038  0.00  0.00    -0.287 OA
ENDBRANCH   1   4
BRANCH   1   6
ATOM      6  CB  GLU A   1     -45.638 -18.659 -15.672  0.00  0.00    +0.037 C 
BRANCH   6   7
ATOM      7  CG  GLU A   1     -45.205 -19.167 -17.038  0.00  0.00    +0.116 C 
BRANCH   7   8
ATOM      8  CD  GLU A   1     -46.058 -18.750 -18.219  0.00  0.00    +0.365 C 
ATOM      9  OE2 GLU A   1     -47.164 -18.193 -18.015  0.00  0.00    -0.246 OA
ATOM     10  OE1 GLU A   1     -45.617 -19.002 -19.363  0.00  0.00    -0.246 OA
ENDBRANCH   7   8
ENDBRANCH   6   7
ENDBRANCH   1   6
TORSDOF 5
REMARK  Name = ../refined-set-2016/3ta0/3ta0_pocket.pdb
REMARK  214 active torsions:
REMARK  status: ('A' for Active; 'I' for Inactive)
REMARK    1  A    between atoms: _1  and  _3
REMARK    2  A    between atoms: _3  and  _4
REMARK    3  A    between atoms: _7  and  _9
REMARK    4  A    between atoms: _9  and  _10
REMARK    5  A    between atoms: _9  and  _12
REMARK    6  A    between atoms: _15  and  _17
REMARK    7  A    between atoms: _17  and  _18
REMARK    8  A    between atoms: _17  and  _20
REMARK    9  A    between atoms: _20  and  _21
REMARK   10  A    between atoms: _24  and  _26
REMARK   11  A    between atoms: _26  and  _27
REMARK   12  A    between atoms: _26  and  _29
REMARK   13  A    between atoms: _29  and  _30
REMARK   14  A    between atoms: _30  and  _31
REMARK   15  A    between atoms: _31  and  _32
REMARK   16  A    between atoms: _41  and  _43
REMARK   17  A    between atoms: _43  and  _44
REMARK   18  A    between atoms: _43  and  _46
REMARK   19  A    between atoms: _49  and  _51
REMARK   20  A    between atoms: _51  and  _52
REMARK   21  A    between atoms: _51  and  _54
REMARK   22  A    between atoms: _54  and  _55
REMARK   23  A    between atoms: _55  and  _56
REMARK   24  A    between atoms: _56  and  _57
REMARK   25  A    between atoms: _57  and  _58
REMARK   26  A    between atoms: _62  and  _64
REMARK   27  A    between atoms: _64  and  _65
REMARK   28  A    between atoms: _67  and  _69
REMARK   29  A    between atoms: _69  and  _70
REMARK   30  A    between atoms: _69  and  _72
REMARK   31  A    between atoms: _72  and  _73
REMARK   32  A    between atoms: _73  and  _74
REMARK   33  A    between atoms: _74  and  _75
REMARK   34  A    between atoms: _84  and  _86
REMARK   35  A    between atoms: _86  and  _87
REMARK   36  A    between atoms: _89  and  _91
REMARK   37  A    between atoms: _91  and  _92
REMARK   38  A    between atoms: _91  and  _94
REMARK   39  A    between atoms: _94  and  _95
REMARK   40  A    between atoms: _95  and  _96
REMARK   41  A    between atoms: _99  and  _101
REMARK   42  A    between atoms: _101  and  _102
REMARK   43  A    between atoms: _101  and  _104
REMARK   44  A    between atoms: _104  and  _105
REMARK   45  A    between atoms: _105  and  _106
REMARK   46  A    between atoms: _111  and  _113
REMARK   47  A    between atoms: _113  and  _114
REMARK   48  A    between atoms: _113  and  _116
REMARK   49  A    between atoms: _116  and  _117
REMARK   50  A    between atoms: _120  and  _122
REMARK   51  A    between atoms: _122  and  _123
REMARK   52  A    between atoms: _122  and  _125
REMARK   53  A    between atoms: _125  and  _126
REMARK   54  A    between atoms: _129  and  _131
REMARK   55  A    between atoms: _131  and  _132
REMARK   56  A    between atoms: _131  and  _134
REMARK   57  A    between atoms: _134  and  _135
REMARK   58  A    between atoms: _138  and  _140
REMARK   59  A    between atoms: _140  and  _141
REMARK   60  A    between atoms: _140  and  _143
REMARK   61  A    between atoms: _143  and  _144
REMARK   62  A    between atoms: _144  and  _145
REMARK   63  A    between atoms: _150  and  _152
REMARK   64  A    between atoms: _152  and  _153
REMARK   65  A    between atoms: _152  and  _155
REMARK   66  A    between atoms: _155  and  _156
REMARK   67  A    between atoms: _156  and  _157
REMARK   68  A    between atoms: _157  and  _158
REMARK   69  A    between atoms: _158  and  _159
REMARK   70  A    between atoms: _163  and  _165
REMARK   71  A    between atoms: _165  and  _166
REMARK   72  A    between atoms: _165  and  _168
REMARK   73  A    between atoms: _168  and  _169
REMARK   74  A    between atoms: _172  and  _174
REMARK   75  A    between atoms: _174  and  _175
REMARK   76  A    between atoms: _174  and  _177
REMARK   77  A    between atoms: _177  and  _178
REMARK   78  A    between atoms: _178  and  _179
REMARK   79  A    between atoms: _179  and  _180
REMARK   80  A    between atoms: _180  and  _181
REMARK   81  A    between atoms: _185  and  _187
REMARK   82  A    between atoms: _187  and  _188
REMARK   83  A    between atoms: _187  and  _190
REMARK   84  A    between atoms: _190  and  _191
REMARK   85  A    between atoms: _194  and  _196
REMARK   86  A    between atoms: _196  and  _197
REMARK   87  A    between atoms: _199  and  _201
REMARK   88  A    between atoms: _201  and  _202
REMARK   89  A    between atoms: _201  and  _204
REMARK   90  A    between atoms: _204  and  _205
REMARK   91  A    between atoms: _205  and  _206
REMARK   92  A    between atoms: _206  and  _207
REMARK   93  A    between atoms: _207  and  _208
REMARK   94  A    between atoms: _212  and  _214
REMARK   95  A    between atoms: _214  and  _215
REMARK   96  A    between atoms: _214  and  _217
REMARK   97  A    between atoms: _217  and  _218
REMARK   98  A    between atoms: _224  and  _226
REMARK   99  A    between atoms: _226  and  _227
REMARK  100  A    between atoms: _229  and  _231
REMARK  101  A    between atoms: _231  and  _232
REMARK  102  A    between atoms: _231  and  _234
REMARK  103  A    between atoms: _234  and  _235
REMARK  104  A    between atoms: _238  and  _240
REMARK  105  A    between atoms: _240  and  _241
REMARK  106  A    between atoms: _243  and  _245
REMARK  107  A    between atoms: _245  and  _246
REMARK  108  A    between atoms: _245  and  _248
REMARK  109  A    between atoms: _248  and  _249
REMARK  110  A    between atoms: _249  and  _250
REMARK  111  A    between atoms: _250  and  _251
REMARK  112  A    between atoms: _260  and  _262
REMARK  113  A    between atoms: _262  and  _263
REMARK  114  A    between atoms: _262  and  _265
REMARK  115  A    between atoms: _265  and  _266
REMARK  116  A    between atoms: _269  and  _271
REMARK  117  A    between atoms: _271  and  _272
REMARK  118  A    between atoms: _271  and  _274
REMARK  119  A    between atoms: _274  and  _275
REMARK  120  A    between atoms: _281  and  _285
REMARK  121  A    between atoms: _285  and  _286
REMARK  122  A    between atoms: _285  and  _288
REMARK  123  A    between atoms: _288  and  _289
REMARK  124  A    between atoms: _289  and  _290
REMARK  125  A    between atoms: _292  and  _294
REMARK  126  A    between atoms: _294  and  _295
REMARK  127  A    between atoms: _294  and  _297
REMARK  128  A    between atoms: _297  and  _298
REMARK  129  A    between atoms: _298  and  _299
REMARK  130  A    between atoms: _299  and  _300
REMARK  131  A    between atoms: _300  and  _301
REMARK  132  A    between atoms: _305  and  _307
REMARK  133  A    between atoms: _307  and  _308
REMARK  134  A    between atoms: _307  and  _310
REMARK  135  A    between atoms: _310  and  _311
REMARK  136  A    between atoms: _311  and  _312
REMARK  137  A    between atoms: _314  and  _316
REMARK  138  A    between atoms: _316  and  _317
REMARK  139  A    between atoms: _316  and  _319
REMARK  140  A    between atoms: _322  and  _324
REMARK  141  A    between atoms: _324  and  _325
REMARK  142  A    between atoms: _324  and  _327
REMARK  143  A    between atoms: _327  and  _328
REMARK  144  A    between atoms: _334  and  _336
REMARK  145  A    between atoms: _336  and  _337
REMARK  146  A    between atoms: _336  and  _339
REMARK  147  A    between atoms: _342  and  _344
REMARK  148  A    between atoms: _344  and  _345
REMARK  149  A    between atoms: _347  and  _349
REMARK  150  A    between atoms: _349  and  _350
REMARK  151  A    between atoms: _349  and  _352
REMARK  152  A    between atoms: _352  and  _353
REMARK  153  A    between atoms: _353  and  _354
REMARK  154  A    between atoms: _356  and  _358
REMARK  155  A    between atoms: _358  and  _359
REMARK  156  A    between atoms: _358  and  _361
REMARK  157  A    between atoms: _361  and  _362
REMARK  158  A    between atoms: _365  and  _367
REMARK  159  A    between atoms: _367  and  _368
REMARK  160  A    between atoms: _367  and  _370
REMARK  161  A    between atoms: _373  and  _375
REMARK  162  A    between atoms: _375  and  _376
REMARK  163  A    between atoms: _375  and  _378
REMARK  164  A    between atoms: _381  and  _383
REMARK  165  A    between atoms: _383  and  _384
REMARK  166  A    between atoms: _383  and  _386
REMARK  167  A    between atoms: _386  and  _387
REMARK  168  A    between atoms: _387  and  _388
REMARK  169  A    between atoms: _391  and  _393
REMARK  170  A    between atoms: _393  and  _394
REMARK  171  A    between atoms: _393  and  _396
REMARK  172  A    between atoms: _399  and  _401
REMARK  173  A    between atoms: _401  and  _402
REMARK  174  A    between atoms: _401  and  _404
REMARK  175  A    between atoms: _407  and  _409
REMARK  176  A    between atoms: _409  and  _410
REMARK  177  A    between atoms: _409  and  _412
REMARK  178  A    between atoms: _415  and  _417
REMARK  179  A    between atoms: _417  and  _418
REMARK  180  A    between atoms: _417  and  _420
REMARK  181  A    between atoms: _420  and  _421
REMARK  182  A    between atoms: _423  and  _425
REMARK  183  A    between atoms: _425  and  _426
REMARK  184  A    between atoms: _425  and  _428
REMARK  185  A    between atoms: _428  and  _429
REMARK  186  A    between atoms: _431  and  _433
REMARK  187  A    between atoms: _433  and  _434
REMARK  188  A    between atoms: _433  and  _436
REMARK  189  A    between atoms: _439  and  _441
REMARK  190  A    between atoms: _441  and  _442
REMARK  191  A    between atoms: _441  and  _444
REMARK  192  A    between atoms: _444  and  _445
REMARK  193  A    between atoms: _445  and  _446
REMARK  194  A    between atoms: _446  and  _447
REMARK  195  A    between atoms: _447  and  _448
REMARK  196  A    between atoms: _452  and  _454
REMARK  197  A    between atoms: _454  and  _455
REMARK  198  A    between atoms: _454  and  _457
REMARK  199  A    between atoms: _457  and  _458
REMARK  200  A    between atoms: _461  and  _463
REMARK  201  A    between atoms: _463  and  _464
REMARK  202  A    between atoms: _463  and  _466
REMARK  203  A    between atoms: _466  and  _467
REMARK  204  A    between atoms: _467  and  _468
REMARK  205  A    between atoms: _468  and  _469
REMARK  206  A    between atoms: _478  and  _480
REMARK  207  A    between atoms: _480  and  _481
REMARK  208  A    between atoms: _480  and  _483
REMARK  209  A    between atoms: _483  and  _484
REMARK  210  A    between atoms: _487  and  _489
REMARK  211  A    between atoms: _489  and  _490
REMARK  212  A    between atoms: _489  and  _492
REMARK  213  A    between atoms: _492  and  _493
REMARK  214  A    between atoms: _493  and  _494
REMARK                            x       y       z     vdW  Elec       q    Type
REMARK                         _______ _______ _______ _____ _____    ______ ____
ROOT
ATOM      1  O   HOH     1     -63.541 -17.117 -21.468  0.00  0.00    +0.000 OA
ENDROOT
TORSDOF 0
REMARK  Name = ../refined-set-2016/3ta0/3ta0_pocket.pdb
REMARK  214 active torsions:
REMARK  status: ('A' for Active; 'I' for Inactive)
REMARK    1  A    between atoms: _1  and  _3
REMARK    2  A    between atoms: _3  and  _4
REMARK    3  A    between atoms: _7  and  _9
REMARK    4  A    between atoms: _9  and  _10
REMARK    5  A    between atoms: _9  and  _12
REMARK    6  A    between atoms: _15  and  _17
REMARK    7  A    between atoms: _17  and  _18
REMARK    8  A    between atoms: _17  and  _20
REMARK    9  A    between atoms: _20  and  _21
REMARK   10  A    between atoms: _24  and  _26
REMARK   11  A    between atoms: _26  and  _27
REMARK   12  A    between atoms: _26  and  _29
REMARK   13  A    between atoms: _29  and  _30
REMARK   14  A    between atoms: _30  and  _31
REMARK   15  A    between atoms: _31  and  _32
REMARK   16  A    between atoms: _41  and  _43
REMARK   17  A    between atoms: _43  and  _44
REMARK   18  A    between atoms: _43  and  _46
REMARK   19  A    between atoms: _49  and  _51
REMARK   20  A    between atoms: _51  and  _52
REMARK   21  A    between atoms: _51  and  _54
REMARK   22  A    between atoms: _54  and  _55
REMARK   23  A    between atoms: _55  and  _56
REMARK   24  A    between atoms: _56  and  _57
REMARK   25  A    between atoms: _57  and  _58
REMARK   26  A    between atoms: _62  and  _64
REMARK   27  A    between atoms: _64  and  _65
REMARK   28  A    between atoms: _67  and  _69
REMARK   29  A    between atoms: _69  and  _70
REMARK   30  A    between atoms: _69  and  _72
REMARK   31  A    between atoms: _72  and  _73
REMARK   32  A    between atoms: _73  and  _74
REMARK   33  A    between atoms: _74  and  _75
REMARK   34  A    between atoms: _84  and  _86
REMARK   35  A    between atoms: _86  and  _87
REMARK   36  A    between atoms: _89  and  _91
REMARK   37  A    between atoms: _91  and  _92
REMARK   38  A    between atoms: _91  and  _94
REMARK   39  A    between atoms: _94  and  _95
REMARK   40  A    between atoms: _95  and  _96
REMARK   41  A    between atoms: _99  and  _101
REMARK   42  A    between atoms: _101  and  _102
REMARK   43  A    between atoms: _101  and  _104
REMARK   44  A    between atoms: _104  and  _105
REMARK   45  A    between atoms: _105  and  _106
REMARK   46  A    between atoms: _111  and  _113
REMARK   47  A    between atoms: _113  and  _114
REMARK   48  A    between atoms: _113  and  _116
REMARK   49  A    between atoms: _116  and  _117
REMARK   50  A    between atoms: _120  and  _122
REMARK   51  A    between atoms: _122  and  _123
REMARK   52  A    between atoms: _122  and  _125
REMARK   53  A    between atoms: _125  and  _126
REMARK   54  A    between atoms: _129  and  _131
REMARK   55  A    between atoms: _131  and  _132
REMARK   56  A    between atoms: _131  and  _134
REMARK   57  A    between atoms: _134  and  _135
REMARK   58  A    between atoms: _138  and  _140
REMARK   59  A    between atoms: _140  and  _141
REMARK   60  A    between atoms: _140  and  _143
REMARK   61  A    between atoms: _143  and  _144
REMARK   62  A    between atoms: _144  and  _145
REMARK   63  A    between atoms: _150  and  _152
REMARK   64  A    between atoms: _152  and  _153
REMARK   65  A    between atoms: _152  and  _155
REMARK   66  A    between atoms: _155  and  _156
REMARK   67  A    between atoms: _156  and  _157
REMARK   68  A    between atoms: _157  and  _158
REMARK   69  A    between atoms: _158  and  _159
REMARK   70  A    between atoms: _163  and  _165
REMARK   71  A    between atoms: _165  and  _166
REMARK   72  A    between atoms: _165  and  _168
REMARK   73  A    between atoms: _168  and  _169
REMARK   74  A    between atoms: _172  and  _174
REMARK   75  A    between atoms: _174  and  _175
REMARK   76  A    between atoms: _174  and  _177
REMARK   77  A    between atoms: _177  and  _178
REMARK   78  A    between atoms: _178  and  _179
REMARK   79  A    between atoms: _179  and  _180
REMARK   80  A    between atoms: _180  and  _181
REMARK   81  A    between atoms: _185  and  _187
REMARK   82  A    between atoms: _187  and  _188
REMARK   83  A    between atoms: _187  and  _190
REMARK   84  A    between atoms: _190  and  _191
REMARK   85  A    between atoms: _194  and  _196
REMARK   86  A    between atoms: _196  and  _197
REMARK   87  A    between atoms: _199  and  _201
REMARK   88  A    between atoms: _201  and  _202
REMARK   89  A    between atoms: _201  and  _204
REMARK   90  A    between atoms: _204  and  _205
REMARK   91  A    between atoms: _205  and  _206
REMARK   92  A    between atoms: _206  and  _207
REMARK   93  A    between atoms: _207  and  _208
REMARK   94  A    between atoms: _212  and  _214
REMARK   95  A    between atoms: _214  and  _215
REMARK   96  A    between atoms: _214  and  _217
REMARK   97  A    between atoms: _217  and  _218
REMARK   98  A    between atoms: _224  and  _226
REMARK   99  A    between atoms: _226  and  _227
REMARK  100  A    between atoms: _229  and  _231
REMARK  101  A    between atoms: _231  and  _232
REMARK  102  A    between atoms: _231  and  _234
REMARK  103  A    between atoms: _234  and  _235
REMARK  104  A    between atoms: _238  and  _240
REMARK  105  A    between atoms: _240  and  _241
REMARK  106  A    between atoms: _243  and  _245
REMARK  107  A    between atoms: _245  and  _246
REMARK  108  A    between atoms: _245  and  _248
REMARK  109  A    between atoms: _248  and  _249
REMARK  110  A    between atoms: _249  and  _250
REMARK  111  A    between atoms: _250  and  _251
REMARK  112  A    between atoms: _260  and  _262
REMARK  113  A    between atoms: _262  and  _263
REMARK  114  A    between atoms: _262  and  _265
REMARK  115  A    between atoms: _265  and  _266
REMARK  116  A    between atoms: _269  and  _271
REMARK  117  A    between atoms: _271  and  _272
REMARK  118  A    between atoms: _271  and  _274
REMARK  119  A    between atoms: _274  and  _275
REMARK  120  A    between atoms: _281  and  _285
REMARK  121  A    between atoms: _285  and  _286
REMARK  122  A    between atoms: _285  and  _288
REMARK  123  A    between atoms: _288  and  _289
REMARK  124  A    between atoms: _289  and  _290
REMARK  125  A    between atoms: _292  and  _294
REMARK  126  A    between atoms: _294  and  _295
REMARK  127  A    between atoms: _294  and  _297
REMARK  128  A    between atoms: _297  and  _298
REMARK  129  A    between atoms: _298  and  _299
REMARK  130  A    between atoms: _299  and  _300
REMARK  131  A    between atoms: _300  and  _301
REMARK  132  A    between atoms: _305  and  _307
REMARK  133  A    between atoms: _307  and  _308
REMARK  134  A    between atoms: _307  and  _310
REMARK  135  A    between atoms: _310  and  _311
REMARK  136  A    between atoms: _311  and  _312
REMARK  137  A    between atoms: _314  and  _316
REMARK  138  A    between atoms: _316  and  _317
REMARK  139  A    between atoms: _316  and  _319
REMARK  140  A    between atoms: _322  and  _324
REMARK  141  A    between atoms: _324  and  _325
REMARK  142  A    between atoms: _324  and  _327
REMARK  143  A    between atoms: _327  and  _328
REMARK  144  A    between atoms: _334  and  _336
REMARK  145  A    between atoms: _336  and  _337
REMARK  146  A    between atoms: _336  and  _339
REMARK  147  A    between atoms: _342  and  _344
REMARK  148  A    between atoms: _344  and  _345
REMARK  149  A    between atoms: _347  and  _349
REMARK  150  A    between atoms: _349  and  _350
REMARK  151  A    between atoms: _349  and  _352
REMARK  152  A    between atoms: _352  and  _353
REMARK  153  A    between atoms: _353  and  _354
REMARK  154  A    between atoms: _356  and  _358
REMARK  155  A    between atoms: _358  and  _359
REMARK  156  A    between atoms: _358  and  _361
REMARK  157  A    between atoms: _361  and  _362
REMARK  158  A    between atoms: _365  and  _367
REMARK  159  A    between atoms: _367  and  _368
REMARK  160  A    between atoms: _367  and  _370
REMARK  161  A    between atoms: _373  and  _375
REMARK  162  A    between atoms: _375  and  _376
REMARK  163  A    between atoms: _375  and  _378
REMARK  164  A    between atoms: _381  and  _383
REMARK  165  A    between atoms: _383  and  _384
REMARK  166  A    between atoms: _383  and  _386
REMARK  167  A    between atoms: _386  and  _387
REMARK  168  A    between atoms: _387  and  _388
REMARK  169  A    between atoms: _391  and  _393
REMARK  170  A    between atoms: _393  and  _394
REMARK  171  A    between atoms: _393  and  _396
REMARK  172  A    between atoms: _399  and  _401
REMARK  173  A    between atoms: _401  and  _402
REMARK  174  A    between atoms: _401  and  _404
REMARK  175  A    between atoms: _407  and  _409
REMARK  176  A    between atoms: _409  and  _410
REMARK  177  A    between atoms: _409  and  _412
REMARK  178  A    between atoms: _415  and  _417
REMARK  179  A    between atoms: _417  and  _418
REMARK  180  A    between atoms: _417  and  _420
REMARK  181  A    between atoms: _420  and  _421
REMARK  182  A    between atoms: _423  and  _425
REMARK  183  A    between atoms: _425  and  _426
REMARK  184  A    between atoms: _425  and  _428
REMARK  185  A    between atoms: _428  and  _429
REMARK  186  A    between atoms: _431  and  _433
REMARK  187  A    between atoms: _433  and  _434
REMARK  188  A    between atoms: _433  and  _436
REMARK  189  A    between atoms: _439  and  _441
REMARK  190  A    between atoms: _441  and  _442
REMARK  191  A    between atoms: _441  and  _444
REMARK  192  A    between atoms: _444  and  _445
REMARK  193  A    between atoms: _445  and  _446
REMARK  194  A    between atoms: _446  and  _447
REMARK  195  A    between atoms: _447  and  _448
REMARK  196  A    between atoms: _452  and  _454
REMARK  197  A    between atoms: _454  and  _455
REMARK  198  A    between atoms: _454  and  _457
REMARK  199  A    between atoms: _457  and  _458
REMARK  200  A    between atoms: _461  and  _463
REMARK  201  A    between atoms: _463  and  _464
REMARK  202  A    between atoms: _463  and  _466
REMARK  203  A    between atoms: _466  and  _467
REMARK  204  A    between atoms: _467  and  _468
REMARK  205  A    between atoms: _468  and  _469
REMARK  206  A    between atoms: _478  and  _480
REMARK  207  A    between atoms: _480  and  _481
REMARK  208  A    between atoms: _480  and  _483
REMARK  209  A    between atoms: _483  and  _484
REMARK  210  A    between atoms: _487  and  _489
REMARK  211  A    between atoms: _489  and  _490
REMARK  212  A    between atoms: _489  and  _492
REMARK  213  A    between atoms: _492  and  _493
REMARK  214  A    between atoms: _493  and  _494
REMARK                            x       y       z     vdW  Elec       q    Type
REMARK                         _______ _______ _______ _____ _____    ______ ____
ROOT
ATOM      1  O   HOH     1     -58.307  -9.587  -7.611  0.00  0.00    +0.000 OA
ENDROOT
TORSDOF 0
REMARK  Name = ../refined-set-2016/3ta0/3ta0_pocket.pdb
REMARK  214 active torsions:
REMARK  status: ('A' for Active; 'I' for Inactive)
REMARK    1  A    between atoms: _1  and  _3
REMARK    2  A    between atoms: _3  and  _4
REMARK    3  A    between atoms: _7  and  _9
REMARK    4  A    between atoms: _9  and  _10
REMARK    5  A    between atoms: _9  and  _12
REMARK    6  A    between atoms: _15  and  _17
REMARK    7  A    between atoms: _17  and  _18
REMARK    8  A    between atoms: _17  and  _20
REMARK    9  A    between atoms: _20  and  _21
REMARK   10  A    between atoms: _24  and  _26
REMARK   11  A    between atoms: _26  and  _27
REMARK   12  A    between atoms: _26  and  _29
REMARK   13  A    between atoms: _29  and  _30
REMARK   14  A    between atoms: _30  and  _31
REMARK   15  A    between atoms: _31  and  _32
REMARK   16  A    between atoms: _41  and  _43
REMARK   17  A    between atoms: _43  and  _44
REMARK   18  A    between atoms: _43  and  _46
REMARK   19  A    between atoms: _49  and  _51
REMARK   20  A    between atoms: _51  and  _52
REMARK   21  A    between atoms: _51  and  _54
REMARK   22  A    between atoms: _54  and  _55
REMARK   23  A    between atoms: _55  and  _56
REMARK   24  A    between atoms: _56  and  _57
REMARK   25  A    between atoms: _57  and  _58
REMARK   26  A    between atoms: _62  and  _64
REMARK   27  A    between atoms: _64  and  _65
REMARK   28  A    between atoms: _67  and  _69
REMARK   29  A    between atoms: _69  and  _70
REMARK   30  A    between atoms: _69  and  _72
REMARK   31  A    between atoms: _72  and  _73
REMARK   32  A    between atoms: _73  and  _74
REMARK   33  A    between atoms: _74  and  _75
REMARK   34  A    between atoms: _84  and  _86
REMARK   35  A    between atoms: _86  and  _87
REMARK   36  A    between atoms: _89  and  _91
REMARK   37  A    between atoms: _91  and  _92
REMARK   38  A    between atoms: _91  and  _94
REMARK   39  A    between atoms: _94  and  _95
REMARK   40  A    between atoms: _95  and  _96
REMARK   41  A    between atoms: _99  and  _101
REMARK   42  A    between atoms: _101  and  _102
REMARK   43  A    between atoms: _101  and  _104
REMARK   44  A    between atoms: _104  and  _105
REMARK   45  A    between atoms: _105  and  _106
REMARK   46  A    between atoms: _111  and  _113
REMARK   47  A    between atoms: _113  and  _114
REMARK   48  A    between atoms: _113  and  _116
REMARK   49  A    between atoms: _116  and  _117
REMARK   50  A    between atoms: _120  and  _122
REMARK   51  A    between atoms: _122  and  _123
REMARK   52  A    between atoms: _122  and  _125
REMARK   53  A    between atoms: _125  and  _126
REMARK   54  A    between atoms: _129  and  _131
REMARK   55  A    between atoms: _131  and  _132
REMARK   56  A    between atoms: _131  and  _134
REMARK   57  A    between atoms: _134  and  _135
REMARK   58  A    between atoms: _138  and  _140
REMARK   59  A    between atoms: _140  and  _141
REMARK   60  A    between atoms: _140  and  _143
REMARK   61  A    between atoms: _143  and  _144
REMARK   62  A    between atoms: _144  and  _145
REMARK   63  A    between atoms: _150  and  _152
REMARK   64  A    between atoms: _152  and  _153
REMARK   65  A    between atoms: _152  and  _155
REMARK   66  A    between atoms: _155  and  _156
REMARK   67  A    between atoms: _156  and  _157
REMARK   68  A    between atoms: _157  and  _158
REMARK   69  A    between atoms: _158  and  _159
REMARK   70  A    between atoms: _163  and  _165
REMARK   71  A    between atoms: _165  and  _166
REMARK   72  A    between atoms: _165  and  _168
REMARK   73  A    between atoms: _168  and  _169
REMARK   74  A    between atoms: _172  and  _174
REMARK   75  A    between atoms: _174  and  _175
REMARK   76  A    between atoms: _174  and  _177
REMARK   77  A    between atoms: _177  and  _178
REMARK   78  A    between atoms: _178  and  _179
REMARK   79  A    between atoms: _179  and  _180
REMARK   80  A    between atoms: _180  and  _181
REMARK   81  A    between atoms: _185  and  _187
REMARK   82  A    between atoms: _187  and  _188
REMARK   83  A    between atoms: _187  and  _190
REMARK   84  A    between atoms: _190  and  _191
REMARK   85  A    between atoms: _194  and  _196
REMARK   86  A    between atoms: _196  and  _197
REMARK   87  A    between atoms: _199  and  _201
REMARK   88  A    between atoms: _201  and  _202
REMARK   89  A    between atoms: _201  and  _204
REMARK   90  A    between atoms: _204  and  _205
REMARK   91  A    between atoms: _205  and  _206
REMARK   92  A    between atoms: _206  and  _207
REMARK   93  A    between atoms: _207  and  _208
REMARK   94  A    between atoms: _212  and  _214
REMARK   95  A    between atoms: _214  and  _215
REMARK   96  A    between atoms: _214  and  _217
REMARK   97  A    between atoms: _217  and  _218
REMARK   98  A    between atoms: _224  and  _226
REMARK   99  A    between atoms: _226  and  _227
REMARK  100  A    between atoms: _229  and  _231
REMARK  101  A    between atoms: _231  and  _232
REMARK  102  A    between atoms: _231  and  _234
REMARK  103  A    between atoms: _234  and  _235
REMARK  104  A    between atoms: _238  and  _240
REMARK  105  A    between atoms: _240  and  _241
REMARK  106  A    between atoms: _243  and  _245
REMARK  107  A    between atoms: _245  and  _246
REMARK  108  A    between atoms: _245  and  _248
REMARK  109  A    between atoms: _248  and  _249
REMARK  110  A    between atoms: _249  and  _250
REMARK  111  A    between atoms: _250  and  _251
REMARK  112  A    between atoms: _260  and  _262
REMARK  113  A    between atoms: _262  and  _263
REMARK  114  A    between atoms: _262  and  _265
REMARK  115  A    between atoms: _265  and  _266
REMARK  116  A    between atoms: _269  and  _271
REMARK  117  A    between atoms: _271  and  _272
REMARK  118  A    between atoms: _271  and  _274
REMARK  119  A    between atoms: _274  and  _275
REMARK  120  A    between atoms: _281  and  _285
REMARK  121  A    between atoms: _285  and  _286
REMARK  122  A    between atoms: _285  and  _288
REMARK  123  A    between atoms: _288  and  _289
REMARK  124  A    between atoms: _289  and  _290
REMARK  125  A    between atoms: _292  and  _294
REMARK  126  A    between atoms: _294  and  _295
REMARK  127  A    between atoms: _294  and  _297
REMARK  128  A    between atoms: _297  and  _298
REMARK  129  A    between atoms: _298  and  _299
REMARK  130  A    between atoms: _299  and  _300
REMARK  131  A    between atoms: _300  and  _301
REMARK  132  A    between atoms: _305  and  _307
REMARK  133  A    between atoms: _307  and  _308
REMARK  134  A    between atoms: _307  and  _310
REMARK  135  A    between atoms: _310  and  _311
REMARK  136  A    between atoms: _311  and  _312
REMARK  137  A    between atoms: _314  and  _316
REMARK  138  A    between atoms: _316  and  _317
REMARK  139  A    between atoms: _316  and  _319
REMARK  140  A    between atoms: _322  and  _324
REMARK  141  A    between atoms: _324  and  _325
REMARK  142  A    between atoms: _324  and  _327
REMARK  143  A    between atoms: _327  and  _328
REMARK  144  A    between atoms: _334  and  _336
REMARK  145  A    between atoms: _336  and  _337
REMARK  146  A    between atoms: _336  and  _339
REMARK  147  A    between atoms: _342  and  _344
REMARK  148  A    between atoms: _344  and  _345
REMARK  149  A    between atoms: _347  and  _349
REMARK  150  A    between atoms: _349  and  _350
REMARK  151  A    between atoms: _349  and  _352
REMARK  152  A    between atoms: _352  and  _353
REMARK  153  A    between atoms: _353  and  _354
REMARK  154  A    between atoms: _356  and  _358
REMARK  155  A    between atoms: _358  and  _359
REMARK  156  A    between atoms: _358  and  _361
REMARK  157  A    between atoms: _361  and  _362
REMARK  158  A    between atoms: _365  and  _367
REMARK  159  A    between atoms: _367  and  _368
REMARK  160  A    between atoms: _367  and  _370
REMARK  161  A    between atoms: _373  and  _375
REMARK  162  A    between atoms: _375  and  _376
REMARK  163  A    between atoms: _375  and  _378
REMARK  164  A    between atoms: _381  and  _383
REMARK  165  A    between atoms: _383  and  _384
REMARK  166  A    between atoms: _383  and  _386
REMARK  167  A    between atoms: _386  and  _387
REMARK  168  A    between atoms: _387  and  _388
REMARK  169  A    between atoms: _391  and  _393
REMARK  170  A    between atoms: _393  and  _394
REMARK  171  A    between atoms: _393  and  _396
REMARK  172  A    between atoms: _399  and  _401
REMARK  173  A    between atoms: _401  and  _402
REMARK  174  A    between atoms: _401  and  _404
REMARK  175  A    between atoms: _407  and  _409
REMARK  176  A    between atoms: _409  and  _410
REMARK  177  A    between atoms: _409  and  _412
REMARK  178  A    between atoms: _415  and  _417
REMARK  179  A    between atoms: _417  and  _418
REMARK  180  A    between atoms: _417  and  _420
REMARK  181  A    between atoms: _420  and  _421
REMARK  182  A    between atoms: _423  and  _425
REMARK  183  A    between atoms: _425  and  _426
REMARK  184  A    between atoms: _425  and  _428
REMARK  185  A    between atoms: _428  and  _429
REMARK  186  A    between atoms: _431  and  _433
REMARK  187  A    between atoms: _433  and  _434
REMARK  188  A    between atoms: _433  and  _436
REMARK  189  A    between atoms: _439  and  _441
REMARK  190  A    between atoms: _441  and  _442
REMARK  191  A    between atoms: _441  and  _444
REMARK  192  A    between atoms: _444  and  _445
REMARK  193  A    between atoms: _445  and  _446
REMARK  194  A    between atoms: _446  and  _447
REMARK  195  A    between atoms: _447  and  _448
REMARK  196  A    between atoms: _452  and  _454
REMARK  197  A    between atoms: _454  and  _455
REMARK  198  A    between atoms: _454  and  _457
REMARK  199  A    between atoms: _457  and  _458
REMARK  200  A    between atoms: _461  and  _463
REMARK  201  A    between atoms: _463  and  _464
REMARK  202  A    between atoms: _463  and  _466
REMARK  203  A    between atoms: _466  and  _467
REMARK  204  A    between atoms: _467  and  _468
REMARK  205  A    between atoms: _468  and  _469
REMARK  206  A    between atoms: _478  and  _480
REMARK  207  A    between atoms: _480  and  _481
REMARK  208  A    between atoms: _480  and  _483
REMARK  209  A    between atoms: _483  and  _484
REMARK  210  A    between atoms: _487  and  _489
REMARK  211  A    between atoms: _489  and  _490
REMARK  212  A    between atoms: _489  and  _492
REMARK  213  A    between atoms: _492  and  _493
REMARK  214  A    between atoms: _493  and  _494
REMARK                            x       y       z     vdW  Elec       q    Type
REMARK                         _______ _______ _______ _____ _____    ______ ____
ROOT
ATOM      1  O   HOH     1     -56.094 -15.036 -11.793  0.00  0.00    +0.000 OA
ENDROOT
TORSDOF 0
REMARK  Name = ../refined-set-2016/3ta0/3ta0_pocket.pdb
REMARK  214 active torsions:
REMARK  status: ('A' for Active; 'I' for Inactive)
REMARK    1  A    between atoms: _1  and  _3
REMARK    2  A    between atoms: _3  and  _4
REMARK    3  A    between atoms: _7  and  _9
REMARK    4  A    between atoms: _9  and  _10
REMARK    5  A    between atoms: _9  and  _12
REMARK    6  A    between atoms: _15  and  _17
REMARK    7  A    between atoms: _17  and  _18
REMARK    8  A    between atoms: _17  and  _20
REMARK    9  A    between atoms: _20  and  _21
REMARK   10  A    between atoms: _24  and  _26
REMARK   11  A    between atoms: _26  and  _27
REMARK   12  A    between atoms: _26  and  _29
REMARK   13  A    between atoms: _29  and  _30
REMARK   14  A    between atoms: _30  and  _31
REMARK   15  A    between atoms: _31  and  _32
REMARK   16  A    between atoms: _41  and  _43
REMARK   17  A    between atoms: _43  and  _44
REMARK   18  A    between atoms: _43  and  _46
REMARK   19  A    between atoms: _49  and  _51
REMARK   20  A    between atoms: _51  and  _52
REMARK   21  A    between atoms: _51  and  _54
REMARK   22  A    between atoms: _54  and  _55
REMARK   23  A    between atoms: _55  and  _56
REMARK   24  A    between atoms: _56  and  _57
REMARK   25  A    between atoms: _57  and  _58
REMARK   26  A    between atoms: _62  and  _64
REMARK   27  A    between atoms: _64  and  _65
REMARK   28  A    between atoms: _67  and  _69
REMARK   29  A    between atoms: _69  and  _70
REMARK   30  A    between atoms: _69  and  _72
REMARK   31  A    between atoms: _72  and  _73
REMARK   32  A    between atoms: _73  and  _74
REMARK   33  A    between atoms: _74  and  _75
REMARK   34  A    between atoms: _84  and  _86
REMARK   35  A    between atoms: _86  and  _87
REMARK   36  A    between atoms: _89  and  _91
REMARK   37  A    between atoms: _91  and  _92
REMARK   38  A    between atoms: _91  and  _94
REMARK   39  A    between atoms: _94  and  _95
REMARK   40  A    between atoms: _95  and  _96
REMARK   41  A    between atoms: _99  and  _101
REMARK   42  A    between atoms: _101  and  _102
REMARK   43  A    between atoms: _101  and  _104
REMARK   44  A    between atoms: _104  and  _105
REMARK   45  A    between atoms: _105  and  _106
REMARK   46  A    between atoms: _111  and  _113
REMARK   47  A    between atoms: _113  and  _114
REMARK   48  A    between atoms: _113  and  _116
REMARK   49  A    between atoms: _116  and  _117
REMARK   50  A    between atoms: _120  and  _122
REMARK   51  A    between atoms: _122  and  _123
REMARK   52  A    between atoms: _122  and  _125
REMARK   53  A    between atoms: _125  and  _126
REMARK   54  A    between atoms: _129  and  _131
REMARK   55  A    between atoms: _131  and  _132
REMARK   56  A    between atoms: _131  and  _134
REMARK   57  A    between atoms: _134  and  _135
REMARK   58  A    between atoms: _138  and  _140
REMARK   59  A    between atoms: _140  and  _141
REMARK   60  A    between atoms: _140  and  _143
REMARK   61  A    between atoms: _143  and  _144
REMARK   62  A    between atoms: _144  and  _145
REMARK   63  A    between atoms: _150  and  _152
REMARK   64  A    between atoms: _152  and  _153
REMARK   65  A    between atoms: _152  and  _155
REMARK   66  A    between atoms: _155  and  _156
REMARK   67  A    between atoms: _156  and  _157
REMARK   68  A    between atoms: _157  and  _158
REMARK   69  A    between atoms: _158  and  _159
REMARK   70  A    between atoms: _163  and  _165
REMARK   71  A    between atoms: _165  and  _166
REMARK   72  A    between atoms: _165  and  _168
REMARK   73  A    between atoms: _168  and  _169
REMARK   74  A    between atoms: _172  and  _174
REMARK   75  A    between atoms: _174  and  _175
REMARK   76  A    between atoms: _174  and  _177
REMARK   77  A    between atoms: _177  and  _178
REMARK   78  A    between atoms: _178  and  _179
REMARK   79  A    between atoms: _179  and  _180
REMARK   80  A    between atoms: _180  and  _181
REMARK   81  A    between atoms: _185  and  _187
REMARK   82  A    between atoms: _187  and  _188
REMARK   83  A    between atoms: _187  and  _190
REMARK   84  A    between atoms: _190  and  _191
REMARK   85  A    between atoms: _194  and  _196
REMARK   86  A    between atoms: _196  and  _197
REMARK   87  A    between atoms: _199  and  _201
REMARK   88  A    between atoms: _201  and  _202
REMARK   89  A    between atoms: _201  and  _204
REMARK   90  A    between atoms: _204  and  _205
REMARK   91  A    between atoms: _205  and  _206
REMARK   92  A    between atoms: _206  and  _207
REMARK   93  A    between atoms: _207  and  _208
REMARK   94  A    between atoms: _212  and  _214
REMARK   95  A    between atoms: _214  and  _215
REMARK   96  A    between atoms: _214  and  _217
REMARK   97  A    between atoms: _217  and  _218
REMARK   98  A    between atoms: _224  and  _226
REMARK   99  A    between atoms: _226  and  _227
REMARK  100  A    between atoms: _229  and  _231
REMARK  101  A    between atoms: _231  and  _232
REMARK  102  A    between atoms: _231  and  _234
REMARK  103  A    between atoms: _234  and  _235
REMARK  104  A    between atoms: _238  and  _240
REMARK  105  A    between atoms: _240  and  _241
REMARK  106  A    between atoms: _243  and  _245
REMARK  107  A    between atoms: _245  and  _246
REMARK  108  A    between atoms: _245  and  _248
REMARK  109  A    between atoms: _248  and  _249
REMARK  110  A    between atoms: _249  and  _250
REMARK  111  A    between atoms: _250  and  _251
REMARK  112  A    between atoms: _260  and  _262
REMARK  113  A    between atoms: _262  and  _263
REMARK  114  A    between atoms: _262  and  _265
REMARK  115  A    between atoms: _265  and  _266
REMARK  116  A    between atoms: _269  and  _271
REMARK  117  A    between atoms: _271  and  _272
REMARK  118  A    between atoms: _271  and  _274
REMARK  119  A    between atoms: _274  and  _275
REMARK  120  A    between atoms: _281  and  _285
REMARK  121  A    between atoms: _285  and  _286
REMARK  122  A    between atoms: _285  and  _288
REMARK  123  A    between atoms: _288  and  _289
REMARK  124  A    between atoms: _289  and  _290
REMARK  125  A    between atoms: _292  and  _294
REMARK  126  A    between atoms: _294  and  _295
REMARK  127  A    between atoms: _294  and  _297
REMARK  128  A    between atoms: _297  and  _298
REMARK  129  A    between atoms: _298  and  _299
REMARK  130  A    between atoms: _299  and  _300
REMARK  131  A    between atoms: _300  and  _301
REMARK  132  A    between atoms: _305  and  _307
REMARK  133  A    between atoms: _307  and  _308
REMARK  134  A    between atoms: _307  and  _310
REMARK  135  A    between atoms: _310  and  _311
REMARK  136  A    between atoms: _311  and  _312
REMARK  137  A    between atoms: _314  and  _316
REMARK  138  A    between atoms: _316  and  _317
REMARK  139  A    between atoms: _316  and  _319
REMARK  140  A    between atoms: _322  and  _324
REMARK  141  A    between atoms: _324  and  _325
REMARK  142  A    between atoms: _324  and  _327
REMARK  143  A    between atoms: _327  and  _328
REMARK  144  A    between atoms: _334  and  _336
REMARK  145  A    between atoms: _336  and  _337
REMARK  146  A    between atoms: _336  and  _339
REMARK  147  A    between atoms: _342  and  _344
REMARK  148  A    between atoms: _344  and  _345
REMARK  149  A    between atoms: _347  and  _349
REMARK  150  A    between atoms: _349  and  _350
REMARK  151  A    between atoms: _349  and  _352
REMARK  152  A    between atoms: _352  and  _353
REMARK  153  A    between atoms: _353  and  _354
REMARK  154  A    between atoms: _356  and  _358
REMARK  155  A    between atoms: _358  and  _359
REMARK  156  A    between atoms: _358  and  _361
REMARK  157  A    between atoms: _361  and  _362
REMARK  158  A    between atoms: _365  and  _367
REMARK  159  A    between atoms: _367  and  _368
REMARK  160  A    between atoms: _367  and  _370
REMARK  161  A    between atoms: _373  and  _375
REMARK  162  A    between atoms: _375  and  _376
REMARK  163  A    between atoms: _375  and  _378
REMARK  164  A    between atoms: _381  and  _383
REMARK  165  A    between atoms: _383  and  _384
REMARK  166  A    between atoms: _383  and  _386
REMARK  167  A    between atoms: _386  and  _387
REMARK  168  A    between atoms: _387  and  _388
REMARK  169  A    between atoms: _391  and  _393
REMARK  170  A    between atoms: _393  and  _394
REMARK  171  A    between atoms: _393  and  _396
REMARK  172  A    between atoms: _399  and  _401
REMARK  173  A    between atoms: _401  and  _402
REMARK  174  A    between atoms: _401  and  _404
REMARK  175  A    between atoms: _407  and  _409
REMARK  176  A    between atoms: _409  and  _410
REMARK  177  A    between atoms: _409  and  _412
REMARK  178  A    between atoms: _415  and  _417
REMARK  179  A    between atoms: _417  and  _418
REMARK  180  A    between atoms: _417  and  _420
REMARK  181  A    between atoms: _420  and  _421
REMARK  182  A    between atoms: _423  and  _425
REMARK  183  A    between atoms: _425  and  _426
REMARK  184  A    between atoms: _425  and  _428
REMARK  185  A    between atoms: _428  and  _429
REMARK  186  A    between atoms: _431  and  _433
REMARK  187  A    between atoms: _433  and  _434
REMARK  188  A    between atoms: _433  and  _436
REMARK  189  A    between atoms: _439  and  _441
REMARK  190  A    between atoms: _441  and  _442
REMARK  191  A    between atoms: _441  and  _444
REMARK  192  A    between atoms: _444  and  _445
REMARK  193  A    between atoms: _445  and  _446
REMARK  194  A    between atoms: _446  and  _447
REMARK  195  A    between atoms: _447  and  _448
REMARK  196  A    between atoms: _452  and  _454
REMARK  197  A    between atoms: _454  and  _455
REMARK  198  A    between atoms: _454  and  _457
REMARK  199  A    between atoms: _457  and  _458
REMARK  200  A    between atoms: _461  and  _463
REMARK  201  A    between atoms: _463  and  _464
REMARK  202  A    between atoms: _463  and  _466
REMARK  203  A    between atoms: _466  and  _467
REMARK  204  A    between atoms: _467  and  _468
REMARK  205  A    between atoms: _468  and  _469
REMARK  206  A    between atoms: _478  and  _480
REMARK  207  A    between atoms: _480  and  _481
REMARK  208  A    between atoms: _480  and  _483
REMARK  209  A    between atoms: _483  and  _484
REMARK  210  A    between atoms: _487  and  _489
REMARK  211  A    between atoms: _489  and  _490
REMARK  212  A    between atoms: _489  and  _492
REMARK  213  A    between atoms: _492  and  _493
REMARK  214  A    between atoms: _493  and  _494
REMARK                            x       y       z     vdW  Elec       q    Type
REMARK                         _______ _______ _______ _____ _____    ______ ____
ROOT
ATOM      1  O   HOH     1     -60.138 -10.064 -16.788  0.00  0.00    +0.000 OA
ENDROOT
TORSDOF 0
REMARK  Name = ../refined-set-2016/3ta0/3ta0_pocket.pdb
REMARK  214 active torsions:
REMARK  status: ('A' for Active; 'I' for Inactive)
REMARK    1  A    between atoms: _1  and  _3
REMARK    2  A    between atoms: _3  and  _4
REMARK    3  A    between atoms: _7  and  _9
REMARK    4  A    between atoms: _9  and  _10
REMARK    5  A    between atoms: _9  and  _12
REMARK    6  A    between atoms: _15  and  _17
REMARK    7  A    between atoms: _17  and  _18
REMARK    8  A    between atoms: _17  and  _20
REMARK    9  A    between atoms: _20  and  _21
REMARK   10  A    between atoms: _24  and  _26
REMARK   11  A    between atoms: _26  and  _27
REMARK   12  A    between atoms: _26  and  _29
REMARK   13  A    between atoms: _29  and  _30
REMARK   14  A    between atoms: _30  and  _31
REMARK   15  A    between atoms: _31  and  _32
REMARK   16  A    between atoms: _41  and  _43
REMARK   17  A    between atoms: _43  and  _44
REMARK   18  A    between atoms: _43  and  _46
REMARK   19  A    between atoms: _49  and  _51
REMARK   20  A    between atoms: _51  and  _52
REMARK   21  A    between atoms: _51  and  _54
REMARK   22  A    between atoms: _54  and  _55
REMARK   23  A    between atoms: _55  and  _56
REMARK   24  A    between atoms: _56  and  _57
REMARK   25  A    between atoms: _57  and  _58
REMARK   26  A    between atoms: _62  and  _64
REMARK   27  A    between atoms: _64  and  _65
REMARK   28  A    between atoms: _67  and  _69
REMARK   29  A    between atoms: _69  and  _70
REMARK   30  A    between atoms: _69  and  _72
REMARK   31  A    between atoms: _72  and  _73
REMARK   32  A    between atoms: _73  and  _74
REMARK   33  A    between atoms: _74  and  _75
REMARK   34  A    between atoms: _84  and  _86
REMARK   35  A    between atoms: _86  and  _87
REMARK   36  A    between atoms: _89  and  _91
REMARK   37  A    between atoms: _91  and  _92
REMARK   38  A    between atoms: _91  and  _94
REMARK   39  A    between atoms: _94  and  _95
REMARK   40  A    between atoms: _95  and  _96
REMARK   41  A    between atoms: _99  and  _101
REMARK   42  A    between atoms: _101  and  _102
REMARK   43  A    between atoms: _101  and  _104
REMARK   44  A    between atoms: _104  and  _105
REMARK   45  A    between atoms: _105  and  _106
REMARK   46  A    between atoms: _111  and  _113
REMARK   47  A    between atoms: _113  and  _114
REMARK   48  A    between atoms: _113  and  _116
REMARK   49  A    between atoms: _116  and  _117
REMARK   50  A    between atoms: _120  and  _122
REMARK   51  A    between atoms: _122  and  _123
REMARK   52  A    between atoms: _122  and  _125
REMARK   53  A    between atoms: _125  and  _126
REMARK   54  A    between atoms: _129  and  _131
REMARK   55  A    between atoms: _131  and  _132
REMARK   56  A    between atoms: _131  and  _134
REMARK   57  A    between atoms: _134  and  _135
REMARK   58  A    between atoms: _138  and  _140
REMARK   59  A    between atoms: _140  and  _141
REMARK   60  A    between atoms: _140  and  _143
REMARK   61  A    between atoms: _143  and  _144
REMARK   62  A    between atoms: _144  and  _145
REMARK   63  A    between atoms: _150  and  _152
REMARK   64  A    between atoms: _152  and  _153
REMARK   65  A    between atoms: _152  and  _155
REMARK   66  A    between atoms: _155  and  _156
REMARK   67  A    between atoms: _156  and  _157
REMARK   68  A    between atoms: _157  and  _158
REMARK   69  A    between atoms: _158  and  _159
REMARK   70  A    between atoms: _163  and  _165
REMARK   71  A    between atoms: _165  and  _166
REMARK   72  A    between atoms: _165  and  _168
REMARK   73  A    between atoms: _168  and  _169
REMARK   74  A    between atoms: _172  and  _174
REMARK   75  A    between atoms: _174  and  _175
REMARK   76  A    between atoms: _174  and  _177
REMARK   77  A    between atoms: _177  and  _178
REMARK   78  A    between atoms: _178  and  _179
REMARK   79  A    between atoms: _179  and  _180
REMARK   80  A    between atoms: _180  and  _181
REMARK   81  A    between atoms: _185  and  _187
REMARK   82  A    between atoms: _187  and  _188
REMARK   83  A    between atoms: _187  and  _190
REMARK   84  A    between atoms: _190  and  _191
REMARK   85  A    between atoms: _194  and  _196
REMARK   86  A    between atoms: _196  and  _197
REMARK   87  A    between atoms: _199  and  _201
REMARK   88  A    between atoms: _201  and  _202
REMARK   89  A    between atoms: _201  and  _204
REMARK   90  A    between atoms: _204  and  _205
REMARK   91  A    between atoms: _205  and  _206
REMARK   92  A    between atoms: _206  and  _207
REMARK   93  A    between atoms: _207  and  _208
REMARK   94  A    between atoms: _212  and  _214
REMARK   95  A    between atoms: _214  and  _215
REMARK   96  A    between atoms: _214  and  _217
REMARK   97  A    between atoms: _217  and  _218
REMARK   98  A    between atoms: _224  and  _226
REMARK   99  A    between atoms: _226  and  _227
REMARK  100  A    between atoms: _229  and  _231
REMARK  101  A    between atoms: _231  and  _232
REMARK  102  A    between atoms: _231  and  _234
REMARK  103  A    between atoms: _234  and  _235
REMARK  104  A    between atoms: _238  and  _240
REMARK  105  A    between atoms: _240  and  _241
REMARK  106  A    between atoms: _243  and  _245
REMARK  107  A    between atoms: _245  and  _246
REMARK  108  A    between atoms: _245  and  _248
REMARK  109  A    between atoms: _248  and  _249
REMARK  110  A    between atoms: _249  and  _250
REMARK  111  A    between atoms: _250  and  _251
REMARK  112  A    between atoms: _260  and  _262
REMARK  113  A    between atoms: _262  and  _263
REMARK  114  A    between atoms: _262  and  _265
REMARK  115  A    between atoms: _265  and  _266
REMARK  116  A    between atoms: _269  and  _271
REMARK  117  A    between atoms: _271  and  _272
REMARK  118  A    between atoms: _271  and  _274
REMARK  119  A    between atoms: _274  and  _275
REMARK  120  A    between atoms: _281  and  _285
REMARK  121  A    between atoms: _285  and  _286
REMARK  122  A    between atoms: _285  and  _288
REMARK  123  A    between atoms: _288  and  _289
REMARK  124  A    between atoms: _289  and  _290
REMARK  125  A    between atoms: _292  and  _294
REMARK  126  A    between atoms: _294  and  _295
REMARK  127  A    between atoms: _294  and  _297
REMARK  128  A    between atoms: _297  and  _298
REMARK  129  A    between atoms: _298  and  _299
REMARK  130  A    between atoms: _299  and  _300
REMARK  131  A    between atoms: _300  and  _301
REMARK  132  A    between atoms: _305  and  _307
REMARK  133  A    between atoms: _307  and  _308
REMARK  134  A    between atoms: _307  and  _310
REMARK  135  A    between atoms: _310  and  _311
REMARK  136  A    between atoms: _311  and  _312
REMARK  137  A    between atoms: _314  and  _316
REMARK  138  A    between atoms: _316  and  _317
REMARK  139  A    between atoms: _316  and  _319
REMARK  140  A    between atoms: _322  and  _324
REMARK  141  A    between atoms: _324  and  _325
REMARK  142  A    between atoms: _324  and  _327
REMARK  143  A    between atoms: _327  and  _328
REMARK  144  A    between atoms: _334  and  _336
REMARK  145  A    between atoms: _336  and  _337
REMARK  146  A    between atoms: _336  and  _339
REMARK  147  A    between atoms: _342  and  _344
REMARK  148  A    between atoms: _344  and  _345
REMARK  149  A    between atoms: _347  and  _349
REMARK  150  A    between atoms: _349  and  _350
REMARK  151  A    between atoms: _349  and  _352
REMARK  152  A    between atoms: _352  and  _353
REMARK  153  A    between atoms: _353  and  _354
REMARK  154  A    between atoms: _356  and  _358
REMARK  155  A    between atoms: _358  and  _359
REMARK  156  A    between atoms: _358  and  _361
REMARK  157  A    between atoms: _361  and  _362
REMARK  158  A    between atoms: _365  and  _367
REMARK  159  A    between atoms: _367  and  _368
REMARK  160  A    between atoms: _367  and  _370
REMARK  161  A    between atoms: _373  and  _375
REMARK  162  A    between atoms: _375  and  _376
REMARK  163  A    between atoms: _375  and  _378
REMARK  164  A    between atoms: _381  and  _383
REMARK  165  A    between atoms: _383  and  _384
REMARK  166  A    between atoms: _383  and  _386
REMARK  167  A    between atoms: _386  and  _387
REMARK  168  A    between atoms: _387  and  _388
REMARK  169  A    between atoms: _391  and  _393
REMARK  170  A    between atoms: _393  and  _394
REMARK  171  A    between atoms: _393  and  _396
REMARK  172  A    between atoms: _399  and  _401
REMARK  173  A    between atoms: _401  and  _402
REMARK  174  A    between atoms: _401  and  _404
REMARK  175  A    between atoms: _407  and  _409
REMARK  176  A    between atoms: _409  and  _410
REMARK  177  A    between atoms: _409  and  _412
REMARK  178  A    between atoms: _415  and  _417
REMARK  179  A    between atoms: _417  and  _418
REMARK  180  A    between atoms: _417  and  _420
REMARK  181  A    between atoms: _420  and  _421
REMARK  182  A    between atoms: _423  and  _425
REMARK  183  A    between atoms: _425  and  _426
REMARK  184  A    between atoms: _425  and  _428
REMARK  185  A    between atoms: _428  and  _429
REMARK  186  A    between atoms: _431  and  _433
REMARK  187  A    between atoms: _433  and  _434
REMARK  188  A    between atoms: _433  and  _436
REMARK  189  A    between atoms: _439  and  _441
REMARK  190  A    between atoms: _441  and  _442
REMARK  191  A    between atoms: _441  and  _444
REMARK  192  A    between atoms: _444  and  _445
REMARK  193  A    between atoms: _445  and  _446
REMARK  194  A    between atoms: _446  and  _447
REMARK  195  A    between atoms: _447  and  _448
REMARK  196  A    between atoms: _452  and  _454
REMARK  197  A    between atoms: _454  and  _455
REMARK  198  A    between atoms: _454  and  _457
REMARK  199  A    between atoms: _457  and  _458
REMARK  200  A    between atoms: _461  and  _463
REMARK  201  A    between atoms: _463  and  _464
REMARK  202  A    between atoms: _463  and  _466
REMARK  203  A    between atoms: _466  and  _467
REMARK  204  A    between atoms: _467  and  _468
REMARK  205  A    between atoms: _468  and  _469
REMARK  206  A    between atoms: _478  and  _480
REMARK  207  A    between atoms: _480  and  _481
REMARK  208  A    between atoms: _480  and  _483
REMARK  209  A    between atoms: _483  and  _484
REMARK  210  A    between atoms: _487  and  _489
REMARK  211  A    between atoms: _489  and  _490
REMARK  212  A    between atoms: _489  and  _492
REMARK  213  A    between atoms: _492  and  _493
REMARK  214  A    between atoms: _493  and  _494
REMARK                            x       y       z     vdW  Elec       q    Type
REMARK                         _______ _______ _______ _____ _____    ______ ____
ROOT
ATOM      1  O   HOH     1     -51.568 -14.350 -20.374  0.00  0.00    +0.000 OA
ENDROOT
TORSDOF 0
REMARK  Name = ../refined-set-2016/3ta0/3ta0_pocket.pdb
REMARK  214 active torsions:
REMARK  status: ('A' for Active; 'I' for Inactive)
REMARK    1  A    between atoms: _1  and  _3
REMARK    2  A    between atoms: _3  and  _4
REMARK    3  A    between atoms: _7  and  _9
REMARK    4  A    between atoms: _9  and  _10
REMARK    5  A    between atoms: _9  and  _12
REMARK    6  A    between atoms: _15  and  _17
REMARK    7  A    between atoms: _17  and  _18
REMARK    8  A    between atoms: _17  and  _20
REMARK    9  A    between atoms: _20  and  _21
REMARK   10  A    between atoms: _24  and  _26
REMARK   11  A    between atoms: _26  and  _27
REMARK   12  A    between atoms: _26  and  _29
REMARK   13  A    between atoms: _29  and  _30
REMARK   14  A    between atoms: _30  and  _31
REMARK   15  A    between atoms: _31  and  _32
REMARK   16  A    between atoms: _41  and  _43
REMARK   17  A    between atoms: _43  and  _44
REMARK   18  A    between atoms: _43  and  _46
REMARK   19  A    between atoms: _49  and  _51
REMARK   20  A    between atoms: _51  and  _52
REMARK   21  A    between atoms: _51  and  _54
REMARK   22  A    between atoms: _54  and  _55
REMARK   23  A    between atoms: _55  and  _56
REMARK   24  A    between atoms: _56  and  _57
REMARK   25  A    between atoms: _57  and  _58
REMARK   26  A    between atoms: _62  and  _64
REMARK   27  A    between atoms: _64  and  _65
REMARK   28  A    between atoms: _67  and  _69
REMARK   29  A    between atoms: _69  and  _70
REMARK   30  A    between atoms: _69  and  _72
REMARK   31  A    between atoms: _72  and  _73
REMARK   32  A    between atoms: _73  and  _74
REMARK   33  A    between atoms: _74  and  _75
REMARK   34  A    between atoms: _84  and  _86
REMARK   35  A    between atoms: _86  and  _87
REMARK   36  A    between atoms: _89  and  _91
REMARK   37  A    between atoms: _91  and  _92
REMARK   38  A    between atoms: _91  and  _94
REMARK   39  A    between atoms: _94  and  _95
REMARK   40  A    between atoms: _95  and  _96
REMARK   41  A    between atoms: _99  and  _101
REMARK   42  A    between atoms: _101  and  _102
REMARK   43  A    between atoms: _101  and  _104
REMARK   44  A    between atoms: _104  and  _105
REMARK   45  A    between atoms: _105  and  _106
REMARK   46  A    between atoms: _111  and  _113
REMARK   47  A    between atoms: _113  and  _114
REMARK   48  A    between atoms: _113  and  _116
REMARK   49  A    between atoms: _116  and  _117
REMARK   50  A    between atoms: _120  and  _122
REMARK   51  A    between atoms: _122  and  _123
REMARK   52  A    between atoms: _122  and  _125
REMARK   53  A    between atoms: _125  and  _126
REMARK   54  A    between atoms: _129  and  _131
REMARK   55  A    between atoms: _131  and  _132
REMARK   56  A    between atoms: _131  and  _134
REMARK   57  A    between atoms: _134  and  _135
REMARK   58  A    between atoms: _138  and  _140
REMARK   59  A    between atoms: _140  and  _141
REMARK   60  A    between atoms: _140  and  _143
REMARK   61  A    between atoms: _143  and  _144
REMARK   62  A    between atoms: _144  and  _145
REMARK   63  A    between atoms: _150  and  _152
REMARK   64  A    between atoms: _152  and  _153
REMARK   65  A    between atoms: _152  and  _155
REMARK   66  A    between atoms: _155  and  _156
REMARK   67  A    between atoms: _156  and  _157
REMARK   68  A    between atoms: _157  and  _158
REMARK   69  A    between atoms: _158  and  _159
REMARK   70  A    between atoms: _163  and  _165
REMARK   71  A    between atoms: _165  and  _166
REMARK   72  A    between atoms: _165  and  _168
REMARK   73  A    between atoms: _168  and  _169
REMARK   74  A    between atoms: _172  and  _174
REMARK   75  A    between atoms: _174  and  _175
REMARK   76  A    between atoms: _174  and  _177
REMARK   77  A    between atoms: _177  and  _178
REMARK   78  A    between atoms: _178  and  _179
REMARK   79  A    between atoms: _179  and  _180
REMARK   80  A    between atoms: _180  and  _181
REMARK   81  A    between atoms: _185  and  _187
REMARK   82  A    between atoms: _187  and  _188
REMARK   83  A    between atoms: _187  and  _190
REMARK   84  A    between atoms: _190  and  _191
REMARK   85  A    between atoms: _194  and  _196
REMARK   86  A    between atoms: _196  and  _197
REMARK   87  A    between atoms: _199  and  _201
REMARK   88  A    between atoms: _201  and  _202
REMARK   89  A    between atoms: _201  and  _204
REMARK   90  A    between atoms: _204  and  _205
REMARK   91  A    between atoms: _205  and  _206
REMARK   92  A    between atoms: _206  and  _207
REMARK   93  A    between atoms: _207  and  _208
REMARK   94  A    between atoms: _212  and  _214
REMARK   95  A    between atoms: _214  and  _215
REMARK   96  A    between atoms: _214  and  _217
REMARK   97  A    between atoms: _217  and  _218
REMARK   98  A    between atoms: _224  and  _226
REMARK   99  A    between atoms: _226  and  _227
REMARK  100  A    between atoms: _229  and  _231
REMARK  101  A    between atoms: _231  and  _232
REMARK  102  A    between atoms: _231  and  _234
REMARK  103  A    between atoms: _234  and  _235
REMARK  104  A    between atoms: _238  and  _240
REMARK  105  A    between atoms: _240  and  _241
REMARK  106  A    between atoms: _243  and  _245
REMARK  107  A    between atoms: _245  and  _246
REMARK  108  A    between atoms: _245  and  _248
REMARK  109  A    between atoms: _248  and  _249
REMARK  110  A    between atoms: _249  and  _250
REMARK  111  A    between atoms: _250  and  _251
REMARK  112  A    between atoms: _260  and  _262
REMARK  113  A    between atoms: _262  and  _263
REMARK  114  A    between atoms: _262  and  _265
REMARK  115  A    between atoms: _265  and  _266
REMARK  116  A    between atoms: _269  and  _271
REMARK  117  A    between atoms: _271  and  _272
REMARK  118  A    between atoms: _271  and  _274
REMARK  119  A    between atoms: _274  and  _275
REMARK  120  A    between atoms: _281  and  _285
REMARK  121  A    between atoms: _285  and  _286
REMARK  122  A    between atoms: _285  and  _288
REMARK  123  A    between atoms: _288  and  _289
REMARK  124  A    between atoms: _289  and  _290
REMARK  125  A    between atoms: _292  and  _294
REMARK  126  A    between atoms: _294  and  _295
REMARK  127  A    between atoms: _294  and  _297
REMARK  128  A    between atoms: _297  and  _298
REMARK  129  A    between atoms: _298  and  _299
REMARK  130  A    between atoms: _299  and  _300
REMARK  131  A    between atoms: _300  and  _301
REMARK  132  A    between atoms: _305  and  _307
REMARK  133  A    between atoms: _307  and  _308
REMARK  134  A    between atoms: _307  and  _310
REMARK  135  A    between atoms: _310  and  _311
REMARK  136  A    between atoms: _311  and  _312
REMARK  137  A    between atoms: _314  and  _316
REMARK  138  A    between atoms: _316  and  _317
REMARK  139  A    between atoms: _316  and  _319
REMARK  140  A    between atoms: _322  and  _324
REMARK  141  A    between atoms: _324  and  _325
REMARK  142  A    between atoms: _324  and  _327
REMARK  143  A    between atoms: _327  and  _328
REMARK  144  A    between atoms: _334  and  _336
REMARK  145  A    between atoms: _336  and  _337
REMARK  146  A    between atoms: _336  and  _339
REMARK  147  A    between atoms: _342  and  _344
REMARK  148  A    between atoms: _344  and  _345
REMARK  149  A    between atoms: _347  and  _349
REMARK  150  A    between atoms: _349  and  _350
REMARK  151  A    between atoms: _349  and  _352
REMARK  152  A    between atoms: _352  and  _353
REMARK  153  A    between atoms: _353  and  _354
REMARK  154  A    between atoms: _356  and  _358
REMARK  155  A    between atoms: _358  and  _359
REMARK  156  A    between atoms: _358  and  _361
REMARK  157  A    between atoms: _361  and  _362
REMARK  158  A    between atoms: _365  and  _367
REMARK  159  A    between atoms: _367  and  _368
REMARK  160  A    between atoms: _367  and  _370
REMARK  161  A    between atoms: _373  and  _375
REMARK  162  A    between atoms: _375  and  _376
REMARK  163  A    between atoms: _375  and  _378
REMARK  164  A    between atoms: _381  and  _383
REMARK  165  A    between atoms: _383  and  _384
REMARK  166  A    between atoms: _383  and  _386
REMARK  167  A    between atoms: _386  and  _387
REMARK  168  A    between atoms: _387  and  _388
REMARK  169  A    between atoms: _391  and  _393
REMARK  170  A    between atoms: _393  and  _394
REMARK  171  A    between atoms: _393  and  _396
REMARK  172  A    between atoms: _399  and  _401
REMARK  173  A    between atoms: _401  and  _402
REMARK  174  A    between atoms: _401  and  _404
REMARK  175  A    between atoms: _407  and  _409
REMARK  176  A    between atoms: _409  and  _410
REMARK  177  A    between atoms: _409  and  _412
REMARK  178  A    between atoms: _415  and  _417
REMARK  179  A    between atoms: _417  and  _418
REMARK  180  A    between atoms: _417  and  _420
REMARK  181  A    between atoms: _420  and  _421
REMARK  182  A    between atoms: _423  and  _425
REMARK  183  A    between atoms: _425  and  _426
REMARK  184  A    between atoms: _425  and  _428
REMARK  185  A    between atoms: _428  and  _429
REMARK  186  A    between atoms: _431  and  _433
REMARK  187  A    between atoms: _433  and  _434
REMARK  188  A    between atoms: _433  and  _436
REMARK  189  A    between atoms: _439  and  _441
REMARK  190  A    between atoms: _441  and  _442
REMARK  191  A    between atoms: _441  and  _444
REMARK  192  A    between atoms: _444  and  _445
REMARK  193  A    between atoms: _445  and  _446
REMARK  194  A    between atoms: _446  and  _447
REMARK  195  A    between atoms: _447  and  _448
REMARK  196  A    between atoms: _452  and  _454
REMARK  197  A    between atoms: _454  and  _455
REMARK  198  A    between atoms: _454  and  _457
REMARK  199  A    between atoms: _457  and  _458
REMARK  200  A    between atoms: _461  and  _463
REMARK  201  A    between atoms: _463  and  _464
REMARK  202  A    between atoms: _463  and  _466
REMARK  203  A    between atoms: _466  and  _467
REMARK  204  A    between atoms: _467  and  _468
REMARK  205  A    between atoms: _468  and  _469
REMARK  206  A    between atoms: _478  and  _480
REMARK  207  A    between atoms: _480  and  _481
REMARK  208  A    between atoms: _480  and  _483
REMARK  209  A    between atoms: _483  and  _484
REMARK  210  A    between atoms: _487  and  _489
REMARK  211  A    between atoms: _489  and  _490
REMARK  212  A    between atoms: _489  and  _492
REMARK  213  A    between atoms: _492  and  _493
REMARK  214  A    between atoms: _493  and  _494
REMARK                            x       y       z     vdW  Elec       q    Type
REMARK                         _______ _______ _______ _____ _____    ______ ____
ROOT
ATOM      1  O   HOH     1     -51.184 -17.240 -20.018  0.00  0.00    +0.000 OA
ENDROOT
TORSDOF 0
REMARK  Name = ../refined-set-2016/3ta0/3ta0_pocket.pdb
REMARK  214 active torsions:
REMARK  status: ('A' for Active; 'I' for Inactive)
REMARK    1  A    between atoms: _1  and  _3
REMARK    2  A    between atoms: _3  and  _4
REMARK    3  A    between atoms: _7  and  _9
REMARK    4  A    between atoms: _9  and  _10
REMARK    5  A    between atoms: _9  and  _12
REMARK    6  A    between atoms: _15  and  _17
REMARK    7  A    between atoms: _17  and  _18
REMARK    8  A    between atoms: _17  and  _20
REMARK    9  A    between atoms: _20  and  _21
REMARK   10  A    between atoms: _24  and  _26
REMARK   11  A    between atoms: _26  and  _27
REMARK   12  A    between atoms: _26  and  _29
REMARK   13  A    between atoms: _29  and  _30
REMARK   14  A    between atoms: _30  and  _31
REMARK   15  A    between atoms: _31  and  _32
REMARK   16  A    between atoms: _41  and  _43
REMARK   17  A    between atoms: _43  and  _44
REMARK   18  A    between atoms: _43  and  _46
REMARK   19  A    between atoms: _49  and  _51
REMARK   20  A    between atoms: _51  and  _52
REMARK   21  A    between atoms: _51  and  _54
REMARK   22  A    between atoms: _54  and  _55
REMARK   23  A    between atoms: _55  and  _56
REMARK   24  A    between atoms: _56  and  _57
REMARK   25  A    between atoms: _57  and  _58
REMARK   26  A    between atoms: _62  and  _64
REMARK   27  A    between atoms: _64  and  _65
REMARK   28  A    between atoms: _67  and  _69
REMARK   29  A    between atoms: _69  and  _70
REMARK   30  A    between atoms: _69  and  _72
REMARK   31  A    between atoms: _72  and  _73
REMARK   32  A    between atoms: _73  and  _74
REMARK   33  A    between atoms: _74  and  _75
REMARK   34  A    between atoms: _84  and  _86
REMARK   35  A    between atoms: _86  and  _87
REMARK   36  A    between atoms: _89  and  _91
REMARK   37  A    between atoms: _91  and  _92
REMARK   38  A    between atoms: _91  and  _94
REMARK   39  A    between atoms: _94  and  _95
REMARK   40  A    between atoms: _95  and  _96
REMARK   41  A    between atoms: _99  and  _101
REMARK   42  A    between atoms: _101  and  _102
REMARK   43  A    between atoms: _101  and  _104
REMARK   44  A    between atoms: _104  and  _105
REMARK   45  A    between atoms: _105  and  _106
REMARK   46  A    between atoms: _111  and  _113
REMARK   47  A    between atoms: _113  and  _114
REMARK   48  A    between atoms: _113  and  _116
REMARK   49  A    between atoms: _116  and  _117
REMARK   50  A    between atoms: _120  and  _122
REMARK   51  A    between atoms: _122  and  _123
REMARK   52  A    between atoms: _122  and  _125
REMARK   53  A    between atoms: _125  and  _126
REMARK   54  A    between atoms: _129  and  _131
REMARK   55  A    between atoms: _131  and  _132
REMARK   56  A    between atoms: _131  and  _134
REMARK   57  A    between atoms: _134  and  _135
REMARK   58  A    between atoms: _138  and  _140
REMARK   59  A    between atoms: _140  and  _141
REMARK   60  A    between atoms: _140  and  _143
REMARK   61  A    between atoms: _143  and  _144
REMARK   62  A    between atoms: _144  and  _145
REMARK   63  A    between atoms: _150  and  _152
REMARK   64  A    between atoms: _152  and  _153
REMARK   65  A    between atoms: _152  and  _155
REMARK   66  A    between atoms: _155  and  _156
REMARK   67  A    between atoms: _156  and  _157
REMARK   68  A    between atoms: _157  and  _158
REMARK   69  A    between atoms: _158  and  _159
REMARK   70  A    between atoms: _163  and  _165
REMARK   71  A    between atoms: _165  and  _166
REMARK   72  A    between atoms: _165  and  _168
REMARK   73  A    between atoms: _168  and  _169
REMARK   74  A    between atoms: _172  and  _174
REMARK   75  A    between atoms: _174  and  _175
REMARK   76  A    between atoms: _174  and  _177
REMARK   77  A    between atoms: _177  and  _178
REMARK   78  A    between atoms: _178  and  _179
REMARK   79  A    between atoms: _179  and  _180
REMARK   80  A    between atoms: _180  and  _181
REMARK   81  A    between atoms: _185  and  _187
REMARK   82  A    between atoms: _187  and  _188
REMARK   83  A    between atoms: _187  and  _190
REMARK   84  A    between atoms: _190  and  _191
REMARK   85  A    between atoms: _194  and  _196
REMARK   86  A    between atoms: _196  and  _197
REMARK   87  A    between atoms: _199  and  _201
REMARK   88  A    between atoms: _201  and  _202
REMARK   89  A    between atoms: _201  and  _204
REMARK   90  A    between atoms: _204  and  _205
REMARK   91  A    between atoms: _205  and  _206
REMARK   92  A    between atoms: _206  and  _207
REMARK   93  A    between atoms: _207  and  _208
REMARK   94  A    between atoms: _212  and  _214
REMARK   95  A    between atoms: _214  and  _215
REMARK   96  A    between atoms: _214  and  _217
REMARK   97  A    between atoms: _217  and  _218
REMARK   98  A    between atoms: _224  and  _226
REMARK   99  A    between atoms: _226  and  _227
REMARK  100  A    between atoms: _229  and  _231
REMARK  101  A    between atoms: _231  and  _232
REMARK  102  A    between atoms: _231  and  _234
REMARK  103  A    between atoms: _234  and  _235
REMARK  104  A    between atoms: _238  and  _240
REMARK  105  A    between atoms: _240  and  _241
REMARK  106  A    between atoms: _243  and  _245
REMARK  107  A    between atoms: _245  and  _246
REMARK  108  A    between atoms: _245  and  _248
REMARK  109  A    between atoms: _248  and  _249
REMARK  110  A    between atoms: _249  and  _250
REMARK  111  A    between atoms: _250  and  _251
REMARK  112  A    between atoms: _260  and  _262
REMARK  113  A    between atoms: _262  and  _263
REMARK  114  A    between atoms: _262  and  _265
REMARK  115  A    between atoms: _265  and  _266
REMARK  116  A    between atoms: _269  and  _271
REMARK  117  A    between atoms: _271  and  _272
REMARK  118  A    between atoms: _271  and  _274
REMARK  119  A    between atoms: _274  and  _275
REMARK  120  A    between atoms: _281  and  _285
REMARK  121  A    between atoms: _285  and  _286
REMARK  122  A    between atoms: _285  and  _288
REMARK  123  A    between atoms: _288  and  _289
REMARK  124  A    between atoms: _289  and  _290
REMARK  125  A    between atoms: _292  and  _294
REMARK  126  A    between atoms: _294  and  _295
REMARK  127  A    between atoms: _294  and  _297
REMARK  128  A    between atoms: _297  and  _298
REMARK  129  A    between atoms: _298  and  _299
REMARK  130  A    between atoms: _299  and  _300
REMARK  131  A    between atoms: _300  and  _301
REMARK  132  A    between atoms: _305  and  _307
REMARK  133  A    between atoms: _307  and  _308
REMARK  134  A    between atoms: _307  and  _310
REMARK  135  A    between atoms: _310  and  _311
REMARK  136  A    between atoms: _311  and  _312
REMARK  137  A    between atoms: _314  and  _316
REMARK  138  A    between atoms: _316  and  _317
REMARK  139  A    between atoms: _316  and  _319
REMARK  140  A    between atoms: _322  and  _324
REMARK  141  A    between atoms: _324  and  _325
REMARK  142  A    between atoms: _324  and  _327
REMARK  143  A    between atoms: _327  and  _328
REMARK  144  A    between atoms: _334  and  _336
REMARK  145  A    between atoms: _336  and  _337
REMARK  146  A    between atoms: _336  and  _339
REMARK  147  A    between atoms: _342  and  _344
REMARK  148  A    between atoms: _344  and  _345
REMARK  149  A    between atoms: _347  and  _349
REMARK  150  A    between atoms: _349  and  _350
REMARK  151  A    between atoms: _349  and  _352
REMARK  152  A    between atoms: _352  and  _353
REMARK  153  A    between atoms: _353  and  _354
REMARK  154  A    between atoms: _356  and  _358
REMARK  155  A    between atoms: _358  and  _359
REMARK  156  A    between atoms: _358  and  _361
REMARK  157  A    between atoms: _361  and  _362
REMARK  158  A    between atoms: _365  and  _367
REMARK  159  A    between atoms: _367  and  _368
REMARK  160  A    between atoms: _367  and  _370
REMARK  161  A    between atoms: _373  and  _375
REMARK  162  A    between atoms: _375  and  _376
REMARK  163  A    between atoms: _375  and  _378
REMARK  164  A    between atoms: _381  and  _383
REMARK  165  A    between atoms: _383  and  _384
REMARK  166  A    between atoms: _383  and  _386
REMARK  167  A    between atoms: _386  and  _387
REMARK  168  A    between atoms: _387  and  _388
REMARK  169  A    between atoms: _391  and  _393
REMARK  170  A    between atoms: _393  and  _394
REMARK  171  A    between atoms: _393  and  _396
REMARK  172  A    between atoms: _399  and  _401
REMARK  173  A    between atoms: _401  and  _402
REMARK  174  A    between atoms: _401  and  _404
REMARK  175  A    between atoms: _407  and  _409
REMARK  176  A    between atoms: _409  and  _410
REMARK  177  A    between atoms: _409  and  _412
REMARK  178  A    between atoms: _415  and  _417
REMARK  179  A    between atoms: _417  and  _418
REMARK  180  A    between atoms: _417  and  _420
REMARK  181  A    between atoms: _420  and  _421
REMARK  182  A    between atoms: _423  and  _425
REMARK  183  A    between atoms: _425  and  _426
REMARK  184  A    between atoms: _425  and  _428
REMARK  185  A    between atoms: _428  and  _429
REMARK  186  A    between atoms: _431  and  _433
REMARK  187  A    between atoms: _433  and  _434
REMARK  188  A    between atoms: _433  and  _436
REMARK  189  A    between atoms: _439  and  _441
REMARK  190  A    between atoms: _441  and  _442
REMARK  191  A    between atoms: _441  and  _444
REMARK  192  A    between atoms: _444  and  _445
REMARK  193  A    between atoms: _445  and  _446
REMARK  194  A    between atoms: _446  and  _447
REMARK  195  A    between atoms: _447  and  _448
REMARK  196  A    between atoms: _452  and  _454
REMARK  197  A    between atoms: _454  and  _455
REMARK  198  A    between atoms: _454  and  _457
REMARK  199  A    between atoms: _457  and  _458
REMARK  200  A    between atoms: _461  and  _463
REMARK  201  A    between atoms: _463  and  _464
REMARK  202  A    between atoms: _463  and  _466
REMARK  203  A    between atoms: _466  and  _467
REMARK  204  A    between atoms: _467  and  _468
REMARK  205  A    between atoms: _468  and  _469
REMARK  206  A    between atoms: _478  and  _480
REMARK  207  A    between atoms: _480  and  _481
REMARK  208  A    between atoms: _480  and  _483
REMARK  209  A    between atoms: _483  and  _484
REMARK  210  A    between atoms: _487  and  _489
REMARK  211  A    between atoms: _489  and  _490
REMARK  212  A    between atoms: _489  and  _492
REMARK  213  A    between atoms: _492  and  _493
REMARK  214  A    between atoms: _493  and  _494
REMARK                            x       y       z     vdW  Elec       q    Type
REMARK                         _______ _______ _______ _____ _____    ______ ____
ROOT
ATOM      1  O   HOH     1     -49.451 -13.882 -23.197  0.00  0.00    +0.000 OA
ENDROOT
TORSDOF 0
REMARK  Name = ../refined-set-2016/3ta0/3ta0_pocket.pdb
REMARK  214 active torsions:
REMARK  status: ('A' for Active; 'I' for Inactive)
REMARK    1  A    between atoms: _1  and  _3
REMARK    2  A    between atoms: _3  and  _4
REMARK    3  A    between atoms: _7  and  _9
REMARK    4  A    between atoms: _9  and  _10
REMARK    5  A    between atoms: _9  and  _12
REMARK    6  A    between atoms: _15  and  _17
REMARK    7  A    between atoms: _17  and  _18
REMARK    8  A    between atoms: _17  and  _20
REMARK    9  A    between atoms: _20  and  _21
REMARK   10  A    between atoms: _24  and  _26
REMARK   11  A    between atoms: _26  and  _27
REMARK   12  A    between atoms: _26  and  _29
REMARK   13  A    between atoms: _29  and  _30
REMARK   14  A    between atoms: _30  and  _31
REMARK   15  A    between atoms: _31  and  _32
REMARK   16  A    between atoms: _41  and  _43
REMARK   17  A    between atoms: _43  and  _44
REMARK   18  A    between atoms: _43  and  _46
REMARK   19  A    between atoms: _49  and  _51
REMARK   20  A    between atoms: _51  and  _52
REMARK   21  A    between atoms: _51  and  _54
REMARK   22  A    between atoms: _54  and  _55
REMARK   23  A    between atoms: _55  and  _56
REMARK   24  A    between atoms: _56  and  _57
REMARK   25  A    between atoms: _57  and  _58
REMARK   26  A    between atoms: _62  and  _64
REMARK   27  A    between atoms: _64  and  _65
REMARK   28  A    between atoms: _67  and  _69
REMARK   29  A    between atoms: _69  and  _70
REMARK   30  A    between atoms: _69  and  _72
REMARK   31  A    between atoms: _72  and  _73
REMARK   32  A    between atoms: _73  and  _74
REMARK   33  A    between atoms: _74  and  _75
REMARK   34  A    between atoms: _84  and  _86
REMARK   35  A    between atoms: _86  and  _87
REMARK   36  A    between atoms: _89  and  _91
REMARK   37  A    between atoms: _91  and  _92
REMARK   38  A    between atoms: _91  and  _94
REMARK   39  A    between atoms: _94  and  _95
REMARK   40  A    between atoms: _95  and  _96
REMARK   41  A    between atoms: _99  and  _101
REMARK   42  A    between atoms: _101  and  _102
REMARK   43  A    between atoms: _101  and  _104
REMARK   44  A    between atoms: _104  and  _105
REMARK   45  A    between atoms: _105  and  _106
REMARK   46  A    between atoms: _111  and  _113
REMARK   47  A    between atoms: _113  and  _114
REMARK   48  A    between atoms: _113  and  _116
REMARK   49  A    between atoms: _116  and  _117
REMARK   50  A    between atoms: _120  and  _122
REMARK   51  A    between atoms: _122  and  _123
REMARK   52  A    between atoms: _122  and  _125
REMARK   53  A    between atoms: _125  and  _126
REMARK   54  A    between atoms: _129  and  _131
REMARK   55  A    between atoms: _131  and  _132
REMARK   56  A    between atoms: _131  and  _134
REMARK   57  A    between atoms: _134  and  _135
REMARK   58  A    between atoms: _138  and  _140
REMARK   59  A    between atoms: _140  and  _141
REMARK   60  A    between atoms: _140  and  _143
REMARK   61  A    between atoms: _143  and  _144
REMARK   62  A    between atoms: _144  and  _145
REMARK   63  A    between atoms: _150  and  _152
REMARK   64  A    between atoms: _152  and  _153
REMARK   65  A    between atoms: _152  and  _155
REMARK   66  A    between atoms: _155  and  _156
REMARK   67  A    between atoms: _156  and  _157
REMARK   68  A    between atoms: _157  and  _158
REMARK   69  A    between atoms: _158  and  _159
REMARK   70  A    between atoms: _163  and  _165
REMARK   71  A    between atoms: _165  and  _166
REMARK   72  A    between atoms: _165  and  _168
REMARK   73  A    between atoms: _168  and  _169
REMARK   74  A    between atoms: _172  and  _174
REMARK   75  A    between atoms: _174  and  _175
REMARK   76  A    between atoms: _174  and  _177
REMARK   77  A    between atoms: _177  and  _178
REMARK   78  A    between atoms: _178  and  _179
REMARK   79  A    between atoms: _179  and  _180
REMARK   80  A    between atoms: _180  and  _181
REMARK   81  A    between atoms: _185  and  _187
REMARK   82  A    between atoms: _187  and  _188
REMARK   83  A    between atoms: _187  and  _190
REMARK   84  A    between atoms: _190  and  _191
REMARK   85  A    between atoms: _194  and  _196
REMARK   86  A    between atoms: _196  and  _197
REMARK   87  A    between atoms: _199  and  _201
REMARK   88  A    between atoms: _201  and  _202
REMARK   89  A    between atoms: _201  and  _204
REMARK   90  A    between atoms: _204  and  _205
REMARK   91  A    between atoms: _205  and  _206
REMARK   92  A    between atoms: _206  and  _207
REMARK   93  A    between atoms: _207  and  _208
REMARK   94  A    between atoms: _212  and  _214
REMARK   95  A    between atoms: _214  and  _215
REMARK   96  A    between atoms: _214  and  _217
REMARK   97  A    between atoms: _217  and  _218
REMARK   98  A    between atoms: _224  and  _226
REMARK   99  A    between atoms: _226  and  _227
REMARK  100  A    between atoms: _229  and  _231
REMARK  101  A    between atoms: _231  and  _232
REMARK  102  A    between atoms: _231  and  _234
REMARK  103  A    between atoms: _234  and  _235
REMARK  104  A    between atoms: _238  and  _240
REMARK  105  A    between atoms: _240  and  _241
REMARK  106  A    between atoms: _243  and  _245
REMARK  107  A    between atoms: _245  and  _246
REMARK  108  A    between atoms: _245  and  _248
REMARK  109  A    between atoms: _248  and  _249
REMARK  110  A    between atoms: _249  and  _250
REMARK  111  A    between atoms: _250  and  _251
REMARK  112  A    between atoms: _260  and  _262
REMARK  113  A    between atoms: _262  and  _263
REMARK  114  A    between atoms: _262  and  _265
REMARK  115  A    between atoms: _265  and  _266
REMARK  116  A    between atoms: _269  and  _271
REMARK  117  A    between atoms: _271  and  _272
REMARK  118  A    between atoms: _271  and  _274
REMARK  119  A    between atoms: _274  and  _275
REMARK  120  A    between atoms: _281  and  _285
REMARK  121  A    between atoms: _285  and  _286
REMARK  122  A    between atoms: _285  and  _288
REMARK  123  A    between atoms: _288  and  _289
REMARK  124  A    between atoms: _289  and  _290
REMARK  125  A    between atoms: _292  and  _294
REMARK  126  A    between atoms: _294  and  _295
REMARK  127  A    between atoms: _294  and  _297
REMARK  128  A    between atoms: _297  and  _298
REMARK  129  A    between atoms: _298  and  _299
REMARK  130  A    between atoms: _299  and  _300
REMARK  131  A    between atoms: _300  and  _301
REMARK  132  A    between atoms: _305  and  _307
REMARK  133  A    between atoms: _307  and  _308
REMARK  134  A    between atoms: _307  and  _310
REMARK  135  A    between atoms: _310  and  _311
REMARK  136  A    between atoms: _311  and  _312
REMARK  137  A    between atoms: _314  and  _316
REMARK  138  A    between atoms: _316  and  _317
REMARK  139  A    between atoms: _316  and  _319
REMARK  140  A    between atoms: _322  and  _324
REMARK  141  A    between atoms: _324  and  _325
REMARK  142  A    between atoms: _324  and  _327
REMARK  143  A    between atoms: _327  and  _328
REMARK  144  A    between atoms: _334  and  _336
REMARK  145  A    between atoms: _336  and  _337
REMARK  146  A    between atoms: _336  and  _339
REMARK  147  A    between atoms: _342  and  _344
REMARK  148  A    between atoms: _344  and  _345
REMARK  149  A    between atoms: _347  and  _349
REMARK  150  A    between atoms: _349  and  _350
REMARK  151  A    between atoms: _349  and  _352
REMARK  152  A    between atoms: _352  and  _353
REMARK  153  A    between atoms: _353  and  _354
REMARK  154  A    between atoms: _356  and  _358
REMARK  155  A    between atoms: _358  and  _359
REMARK  156  A    between atoms: _358  and  _361
REMARK  157  A    between atoms: _361  and  _362
REMARK  158  A    between atoms: _365  and  _367
REMARK  159  A    between atoms: _367  and  _368
REMARK  160  A    between atoms: _367  and  _370
REMARK  161  A    between atoms: _373  and  _375
REMARK  162  A    between atoms: _375  and  _376
REMARK  163  A    between atoms: _375  and  _378
REMARK  164  A    between atoms: _381  and  _383
REMARK  165  A    between atoms: _383  and  _384
REMARK  166  A    between atoms: _383  and  _386
REMARK  167  A    between atoms: _386  and  _387
REMARK  168  A    between atoms: _387  and  _388
REMARK  169  A    between atoms: _391  and  _393
REMARK  170  A    between atoms: _393  and  _394
REMARK  171  A    between atoms: _393  and  _396
REMARK  172  A    between atoms: _399  and  _401
REMARK  173  A    between atoms: _401  and  _402
REMARK  174  A    between atoms: _401  and  _404
REMARK  175  A    between atoms: _407  and  _409
REMARK  176  A    between atoms: _409  and  _410
REMARK  177  A    between atoms: _409  and  _412
REMARK  178  A    between atoms: _415  and  _417
REMARK  179  A    between atoms: _417  and  _418
REMARK  180  A    between atoms: _417  and  _420
REMARK  181  A    between atoms: _420  and  _421
REMARK  182  A    between atoms: _423  and  _425
REMARK  183  A    between atoms: _425  and  _426
REMARK  184  A    between atoms: _425  and  _428
REMARK  185  A    between atoms: _428  and  _429
REMARK  186  A    between atoms: _431  and  _433
REMARK  187  A    between atoms: _433  and  _434
REMARK  188  A    between atoms: _433  and  _436
REMARK  189  A    between atoms: _439  and  _441
REMARK  190  A    between atoms: _441  and  _442
REMARK  191  A    between atoms: _441  and  _444
REMARK  192  A    between atoms: _444  and  _445
REMARK  193  A    between atoms: _445  and  _446
REMARK  194  A    between atoms: _446  and  _447
REMARK  195  A    between atoms: _447  and  _448
REMARK  196  A    between atoms: _452  and  _454
REMARK  197  A    between atoms: _454  and  _455
REMARK  198  A    between atoms: _454  and  _457
REMARK  199  A    between atoms: _457  and  _458
REMARK  200  A    between atoms: _461  and  _463
REMARK  201  A    between atoms: _463  and  _464
REMARK  202  A    between atoms: _463  and  _466
REMARK  203  A    between atoms: _466  and  _467
REMARK  204  A    between atoms: _467  and  _468
REMARK  205  A    between atoms: _468  and  _469
REMARK  206  A    between atoms: _478  and  _480
REMARK  207  A    between atoms: _480  and  _481
REMARK  208  A    between atoms: _480  and  _483
REMARK  209  A    between atoms: _483  and  _484
REMARK  210  A    between atoms: _487  and  _489
REMARK  211  A    between atoms: _489  and  _490
REMARK  212  A    between atoms: _489  and  _492
REMARK  213  A    between atoms: _492  and  _493
REMARK  214  A    between atoms: _493  and  _494
REMARK                            x       y       z     vdW  Elec       q    Type
REMARK                         _______ _______ _______ _____ _____    ______ ____
ROOT
ATOM      1  O   HOH     1     -50.831  -0.558 -18.947  0.00  0.00    +0.000 OA
ENDROOT
TORSDOF 0
REMARK  Name = ../refined-set-2016/3ta0/3ta0_pocket.pdb
REMARK  214 active torsions:
REMARK  status: ('A' for Active; 'I' for Inactive)
REMARK    1  A    between atoms: _1  and  _3
REMARK    2  A    between atoms: _3  and  _4
REMARK    3  A    between atoms: _7  and  _9
REMARK    4  A    between atoms: _9  and  _10
REMARK    5  A    between atoms: _9  and  _12
REMARK    6  A    between atoms: _15  and  _17
REMARK    7  A    between atoms: _17  and  _18
REMARK    8  A    between atoms: _17  and  _20
REMARK    9  A    between atoms: _20  and  _21
REMARK   10  A    between atoms: _24  and  _26
REMARK   11  A    between atoms: _26  and  _27
REMARK   12  A    between atoms: _26  and  _29
REMARK   13  A    between atoms: _29  and  _30
REMARK   14  A    between atoms: _30  and  _31
REMARK   15  A    between atoms: _31  and  _32
REMARK   16  A    between atoms: _41  and  _43
REMARK   17  A    between atoms: _43  and  _44
REMARK   18  A    between atoms: _43  and  _46
REMARK   19  A    between atoms: _49  and  _51
REMARK   20  A    between atoms: _51  and  _52
REMARK   21  A    between atoms: _51  and  _54
REMARK   22  A    between atoms: _54  and  _55
REMARK   23  A    between atoms: _55  and  _56
REMARK   24  A    between atoms: _56  and  _57
REMARK   25  A    between atoms: _57  and  _58
REMARK   26  A    between atoms: _62  and  _64
REMARK   27  A    between atoms: _64  and  _65
REMARK   28  A    between atoms: _67  and  _69
REMARK   29  A    between atoms: _69  and  _70
REMARK   30  A    between atoms: _69  and  _72
REMARK   31  A    between atoms: _72  and  _73
REMARK   32  A    between atoms: _73  and  _74
REMARK   33  A    between atoms: _74  and  _75
REMARK   34  A    between atoms: _84  and  _86
REMARK   35  A    between atoms: _86  and  _87
REMARK   36  A    between atoms: _89  and  _91
REMARK   37  A    between atoms: _91  and  _92
REMARK   38  A    between atoms: _91  and  _94
REMARK   39  A    between atoms: _94  and  _95
REMARK   40  A    between atoms: _95  and  _96
REMARK   41  A    between atoms: _99  and  _101
REMARK   42  A    between atoms: _101  and  _102
REMARK   43  A    between atoms: _101  and  _104
REMARK   44  A    between atoms: _104  and  _105
REMARK   45  A    between atoms: _105  and  _106
REMARK   46  A    between atoms: _111  and  _113
REMARK   47  A    between atoms: _113  and  _114
REMARK   48  A    between atoms: _113  and  _116
REMARK   49  A    between atoms: _116  and  _117
REMARK   50  A    between atoms: _120  and  _122
REMARK   51  A    between atoms: _122  and  _123
REMARK   52  A    between atoms: _122  and  _125
REMARK   53  A    between atoms: _125  and  _126
REMARK   54  A    between atoms: _129  and  _131
REMARK   55  A    between atoms: _131  and  _132
REMARK   56  A    between atoms: _131  and  _134
REMARK   57  A    between atoms: _134  and  _135
REMARK   58  A    between atoms: _138  and  _140
REMARK   59  A    between atoms: _140  and  _141
REMARK   60  A    between atoms: _140  and  _143
REMARK   61  A    between atoms: _143  and  _144
REMARK   62  A    between atoms: _144  and  _145
REMARK   63  A    between atoms: _150  and  _152
REMARK   64  A    between atoms: _152  and  _153
REMARK   65  A    between atoms: _152  and  _155
REMARK   66  A    between atoms: _155  and  _156
REMARK   67  A    between atoms: _156  and  _157
REMARK   68  A    between atoms: _157  and  _158
REMARK   69  A    between atoms: _158  and  _159
REMARK   70  A    between atoms: _163  and  _165
REMARK   71  A    between atoms: _165  and  _166
REMARK   72  A    between atoms: _165  and  _168
REMARK   73  A    between atoms: _168  and  _169
REMARK   74  A    between atoms: _172  and  _174
REMARK   75  A    between atoms: _174  and  _175
REMARK   76  A    between atoms: _174  and  _177
REMARK   77  A    between atoms: _177  and  _178
REMARK   78  A    between atoms: _178  and  _179
REMARK   79  A    between atoms: _179  and  _180
REMARK   80  A    between atoms: _180  and  _181
REMARK   81  A    between atoms: _185  and  _187
REMARK   82  A    between atoms: _187  and  _188
REMARK   83  A    between atoms: _187  and  _190
REMARK   84  A    between atoms: _190  and  _191
REMARK   85  A    between atoms: _194  and  _196
REMARK   86  A    between atoms: _196  and  _197
REMARK   87  A    between atoms: _199  and  _201
REMARK   88  A    between atoms: _201  and  _202
REMARK   89  A    between atoms: _201  and  _204
REMARK   90  A    between atoms: _204  and  _205
REMARK   91  A    between atoms: _205  and  _206
REMARK   92  A    between atoms: _206  and  _207
REMARK   93  A    between atoms: _207  and  _208
REMARK   94  A    between atoms: _212  and  _214
REMARK   95  A    between atoms: _214  and  _215
REMARK   96  A    between atoms: _214  and  _217
REMARK   97  A    between atoms: _217  and  _218
REMARK   98  A    between atoms: _224  and  _226
REMARK   99  A    between atoms: _226  and  _227
REMARK  100  A    between atoms: _229  and  _231
REMARK  101  A    between atoms: _231  and  _232
REMARK  102  A    between atoms: _231  and  _234
REMARK  103  A    between atoms: _234  and  _235
REMARK  104  A    between atoms: _238  and  _240
REMARK  105  A    between atoms: _240  and  _241
REMARK  106  A    between atoms: _243  and  _245
REMARK  107  A    between atoms: _245  and  _246
REMARK  108  A    between atoms: _245  and  _248
REMARK  109  A    between atoms: _248  and  _249
REMARK  110  A    between atoms: _249  and  _250
REMARK  111  A    between atoms: _250  and  _251
REMARK  112  A    between atoms: _260  and  _262
REMARK  113  A    between atoms: _262  and  _263
REMARK  114  A    between atoms: _262  and  _265
REMARK  115  A    between atoms: _265  and  _266
REMARK  116  A    between atoms: _269  and  _271
REMARK  117  A    between atoms: _271  and  _272
REMARK  118  A    between atoms: _271  and  _274
REMARK  119  A    between atoms: _274  and  _275
REMARK  120  A    between atoms: _281  and  _285
REMARK  121  A    between atoms: _285  and  _286
REMARK  122  A    between atoms: _285  and  _288
REMARK  123  A    between atoms: _288  and  _289
REMARK  124  A    between atoms: _289  and  _290
REMARK  125  A    between atoms: _292  and  _294
REMARK  126  A    between atoms: _294  and  _295
REMARK  127  A    between atoms: _294  and  _297
REMARK  128  A    between atoms: _297  and  _298
REMARK  129  A    between atoms: _298  and  _299
REMARK  130  A    between atoms: _299  and  _300
REMARK  131  A    between atoms: _300  and  _301
REMARK  132  A    between atoms: _305  and  _307
REMARK  133  A    between atoms: _307  and  _308
REMARK  134  A    between atoms: _307  and  _310
REMARK  135  A    between atoms: _310  and  _311
REMARK  136  A    between atoms: _311  and  _312
REMARK  137  A    between atoms: _314  and  _316
REMARK  138  A    between atoms: _316  and  _317
REMARK  139  A    between atoms: _316  and  _319
REMARK  140  A    between atoms: _322  and  _324
REMARK  141  A    between atoms: _324  and  _325
REMARK  142  A    between atoms: _324  and  _327
REMARK  143  A    between atoms: _327  and  _328
REMARK  144  A    between atoms: _334  and  _336
REMARK  145  A    between atoms: _336  and  _337
REMARK  146  A    between atoms: _336  and  _339
REMARK  147  A    between atoms: _342  and  _344
REMARK  148  A    between atoms: _344  and  _345
REMARK  149  A    between atoms: _347  and  _349
REMARK  150  A    between atoms: _349  and  _350
REMARK  151  A    between atoms: _349  and  _352
REMARK  152  A    between atoms: _352  and  _353
REMARK  153  A    between atoms: _353  and  _354
REMARK  154  A    between atoms: _356  and  _358
REMARK  155  A    between atoms: _358  and  _359
REMARK  156  A    between atoms: _358  and  _361
REMARK  157  A    between atoms: _361  and  _362
REMARK  158  A    between atoms: _365  and  _367
REMARK  159  A    between atoms: _367  and  _368
REMARK  160  A    between atoms: _367  and  _370
REMARK  161  A    between atoms: _373  and  _375
REMARK  162  A    between atoms: _375  and  _376
REMARK  163  A    between atoms: _375  and  _378
REMARK  164  A    between atoms: _381  and  _383
REMARK  165  A    between atoms: _383  and  _384
REMARK  166  A    between atoms: _383  and  _386
REMARK  167  A    between atoms: _386  and  _387
REMARK  168  A    between atoms: _387  and  _388
REMARK  169  A    between atoms: _391  and  _393
REMARK  170  A    between atoms: _393  and  _394
REMARK  171  A    between atoms: _393  and  _396
REMARK  172  A    between atoms: _399  and  _401
REMARK  173  A    between atoms: _401  and  _402
REMARK  174  A    between atoms: _401  and  _404
REMARK  175  A    between atoms: _407  and  _409
REMARK  176  A    between atoms: _409  and  _410
REMARK  177  A    between atoms: _409  and  _412
REMARK  178  A    between atoms: _415  and  _417
REMARK  179  A    between atoms: _417  and  _418
REMARK  180  A    between atoms: _417  and  _420
REMARK  181  A    between atoms: _420  and  _421
REMARK  182  A    between atoms: _423  and  _425
REMARK  183  A    between atoms: _425  and  _426
REMARK  184  A    between atoms: _425  and  _428
REMARK  185  A    between atoms: _428  and  _429
REMARK  186  A    between atoms: _431  and  _433
REMARK  187  A    between atoms: _433  and  _434
REMARK  188  A    between atoms: _433  and  _436
REMARK  189  A    between atoms: _439  and  _441
REMARK  190  A    between atoms: _441  and  _442
REMARK  191  A    between atoms: _441  and  _444
REMARK  192  A    between atoms: _444  and  _445
REMARK  193  A    between atoms: _445  and  _446
REMARK  194  A    between atoms: _446  and  _447
REMARK  195  A    between atoms: _447  and  _448
REMARK  196  A    between atoms: _452  and  _454
REMARK  197  A    between atoms: _454  and  _455
REMARK  198  A    between atoms: _454  and  _457
REMARK  199  A    between atoms: _457  and  _458
REMARK  200  A    between atoms: _461  and  _463
REMARK  201  A    between atoms: _463  and  _464
REMARK  202  A    between atoms: _463  and  _466
REMARK  203  A    between atoms: _466  and  _467
REMARK  204  A    between atoms: _467  and  _468
REMARK  205  A    between atoms: _468  and  _469
REMARK  206  A    between atoms: _478  and  _480
REMARK  207  A    between atoms: _480  and  _481
REMARK  208  A    between atoms: _480  and  _483
REMARK  209  A    between atoms: _483  and  _484
REMARK  210  A    between atoms: _487  and  _489
REMARK  211  A    between atoms: _489  and  _490
REMARK  212  A    between atoms: _489  and  _492
REMARK  213  A    between atoms: _492  and  _493
REMARK  214  A    between atoms: _493  and  _494
REMARK                            x       y       z     vdW  Elec       q    Type
REMARK                         _______ _______ _______ _____ _____    ______ ____
ROOT
ATOM      1  O   HOH     1     -47.256 -16.207 -24.320  0.00  0.00    +0.000 OA
ENDROOT
TORSDOF 0
