REMARK  Name = ../refined-set-2016/1j16/1j16_pocket.pdb
REMARK  117 active torsions:
REMARK  status: ('A' for Active; 'I' for Inactive)
REMARK    1  A    between atoms: _1  and  _5
REMARK    2  A    between atoms: _5  and  _6
REMARK    3  A    between atoms: _5  and  _8
REMARK    4  A    between atoms: _8  and  _9
REMARK    5  A    between atoms: _12  and  _14
REMARK    6  A    between atoms: _14  and  _15
REMARK    7  A    between atoms: _14  and  _17
REMARK    8  A    between atoms: _20  and  _22
REMARK    9  A    between atoms: _22  and  _23
REMARK   10  A    between atoms: _22  and  _25
REMARK   11  A    between atoms: _25  and  _26
REMARK   12  A    between atoms: _31  and  _33
REMARK   13  A    between atoms: _33  and  _34
REMARK   14  A    between atoms: _33  and  _36
REMARK   15  A    between atoms: _36  and  _37
REMARK   16  A    between atoms: _42  and  _43
REMARK   17  A    between atoms: _45  and  _47
REMARK   18  A    between atoms: _47  and  _48
REMARK   19  A    between atoms: _47  and  _50
REMARK   20  A    between atoms: _50  and  _51
REMARK   21  A    between atoms: _54  and  _56
REMARK   22  A    between atoms: _56  and  _57
REMARK   23  A    between atoms: _56  and  _59
REMARK   24  A    between atoms: _59  and  _60
REMARK   25  A    between atoms: _65  and  _67
REMARK   26  A    between atoms: _67  and  _68
REMARK   27  A    between atoms: _67  and  _70
REMARK   28  A    between atoms: _70  and  _71
REMARK   29  A    between atoms: _77  and  _79
REMARK   30  A    between atoms: _79  and  _80
REMARK   31  A    between atoms: _79  and  _82
REMARK   32  A    between atoms: _85  and  _87
REMARK   33  A    between atoms: _87  and  _88
REMARK   34  A    between atoms: _87  and  _90
REMARK   35  A    between atoms: _90  and  _91
REMARK   36  A    between atoms: _91  and  _92
REMARK   37  A    between atoms: _92  and  _93
REMARK   38  A    between atoms: _93  and  _94
REMARK   39  A    between atoms: _98  and  _100
REMARK   40  A    between atoms: _100  and  _101
REMARK   41  A    between atoms: _100  and  _103
REMARK   42  A    between atoms: _103  and  _104
REMARK   43  A    between atoms: _107  and  _109
REMARK   44  A    between atoms: _109  and  _110
REMARK   45  A    between atoms: _113  and  _115
REMARK   46  A    between atoms: _115  and  _116
REMARK   47  A    between atoms: _115  and  _118
REMARK   48  A    between atoms: _118  and  _119
REMARK   49  A    between atoms: _119  and  _235
REMARK   50  A    between atoms: _120  and  _122
REMARK   51  A    between atoms: _122  and  _123
REMARK   52  A    between atoms: _122  and  _125
REMARK   53  A    between atoms: _125  and  _126
REMARK   54  A    between atoms: _126  and  _127
REMARK   55  A    between atoms: _132  and  _134
REMARK   56  A    between atoms: _134  and  _135
REMARK   57  A    between atoms: _137  and  _139
REMARK   58  A    between atoms: _139  and  _140
REMARK   59  A    between atoms: _139  and  _142
REMARK   60  A    between atoms: _142  and  _143
REMARK   61  A    between atoms: _146  and  _148
REMARK   62  A    between atoms: _148  and  _149
REMARK   63  A    between atoms: _148  and  _151
REMARK   64  A    between atoms: _151  and  _152
REMARK   65  A    between atoms: _154  and  _156
REMARK   66  A    between atoms: _156  and  _157
REMARK   67  A    between atoms: _159  and  _161
REMARK   68  A    between atoms: _161  and  _162
REMARK   69  A    between atoms: _164  and  _166
REMARK   70  A    between atoms: _166  and  _167
REMARK   71  A    between atoms: _166  and  _169
REMARK   72  A    between atoms: _169  and  _170
REMARK   73  A    between atoms: _173  and  _175
REMARK   74  A    between atoms: _175  and  _176
REMARK   75  A    between atoms: _175  and  _178
REMARK   76  A    between atoms: _181  and  _183
REMARK   77  A    between atoms: _183  and  _184
REMARK   78  A    between atoms: _183  and  _186
REMARK   79  A    between atoms: _186  and  _187
REMARK   80  A    between atoms: _189  and  _191
REMARK   81  A    between atoms: _191  and  _192
REMARK   82  A    between atoms: _191  and  _194
REMARK   83  A    between atoms: _194  and  _195
REMARK   84  A    between atoms: _205  and  _207
REMARK   85  A    between atoms: _207  and  _208
REMARK   86  A    between atoms: _210  and  _212
REMARK   87  A    between atoms: _212  and  _213
REMARK   88  A    between atoms: _212  and  _215
REMARK   89  A    between atoms: _215  and  _216
REMARK   90  A    between atoms: _221  and  _222
REMARK   91  A    between atoms: _224  and  _226
REMARK   92  A    between atoms: _226  and  _227
REMARK   93  A    between atoms: _229  and  _231
REMARK   94  A    between atoms: _231  and  _232
REMARK   95  A    between atoms: _231  and  _234
REMARK   96  A    between atoms: _234  and  _235
REMARK   97  A    between atoms: _236  and  _238
REMARK   98  A    between atoms: _238  and  _239
REMARK   99  A    between atoms: _242  and  _244
REMARK  100  A    between atoms: _244  and  _245
REMARK  101  A    between atoms: _244  and  _247
REMARK  102  A    between atoms: _247  and  _248
REMARK  103  A    between atoms: _251  and  _253
REMARK  104  A    between atoms: _253  and  _254
REMARK  105  A    between atoms: _253  and  _256
REMARK  106  A    between atoms: _256  and  _257
REMARK  107  A    between atoms: _263  and  _264
REMARK  108  A    between atoms: _269  and  _271
REMARK  109  A    between atoms: _271  and  _272
REMARK  110  A    between atoms: _274  and  _276
REMARK  111  A    between atoms: _276  and  _277
REMARK  112  A    between atoms: _276  and  _279
REMARK  113  A    between atoms: _282  and  _284
REMARK  114  A    between atoms: _284  and  _285
REMARK  115  A    between atoms: _284  and  _287
REMARK  116  A    between atoms: _287  and  _288
REMARK  117  A    between atoms: _293  and  _294
REMARK                            x       y       z     vdW  Elec       q    Type
REMARK                         _______ _______ _______ _____ _____    ______ ____
ROOT
ATOM      1  C   ILE A   1      -0.691  50.248  50.600  0.00  0.00    +0.202 C 
ATOM      2  N   VAL A   2      -0.187  51.367  51.108  0.00  0.00    -0.301 N 
ATOM      3  H   VAL A   2       0.847  51.468  51.159  0.00  0.00    +0.150 HD
ATOM      4  O   ILE A   1      -1.903  50.015  50.536  0.00  0.00    -0.277 OA
ENDROOT
BRANCH   1   5
ATOM      5  CA  ILE A   1       0.322  49.213  50.118  0.00  0.00    +0.013 C 
BRANCH   5   6
ATOM      6  N   ILE A   1       0.110  47.981  50.942  0.00  0.00    +0.387 N 
ATOM      7  H1  ILE A   1       0.262  48.206  51.946  0.00  0.00    -0.089 HD
ATOM      8  H2  ILE A   1      -0.862  47.637  50.806  0.00  0.00    -0.089 HD
ATOM      9  H3  ILE A   1       0.784  47.246  50.645  0.00  0.00    -0.089 HD
ENDBRANCH   5   6
BRANCH   5  10
ATOM     10  CB  ILE A   1       0.045  48.948  48.603  0.00  0.00    -0.011 C 
ATOM     11  CG2 ILE A   1       0.173  50.251  47.798  0.00  0.00    -0.002 C 
BRANCH  10  12
ATOM     12  CG1 ILE A   1       0.977  47.859  48.041  0.00  0.00    -0.002 C 
ATOM     13  CD1 ILE A   1       2.442  48.257  47.912  0.00  0.00    -0.000 C 
ENDBRANCH  10  12
ENDBRANCH   5  10
ENDBRANCH   1   5
BRANCH   2  14
ATOM     14  CA  VAL A   2      -1.020  52.460  51.597  0.00  0.00    +0.137 C 
BRANCH  14  15
ATOM     15  CB  VAL A   2      -0.355  53.190  52.792  0.00  0.00    +0.026 C 
ATOM     16  CG2 VAL A   2      -0.014  52.216  53.898  0.00  0.00    +0.002 C 
ATOM     17  CG1 VAL A   2      -1.273  54.294  53.301  0.00  0.00    +0.002 C 
ENDBRANCH  14  15
BRANCH  14  18
ATOM     18  C   VAL A   2      -1.186  53.477  50.468  0.00  0.00    +0.227 C 
ATOM     19  O   VAL A   2      -0.214  53.834  49.802  0.00  0.00    -0.286 OA
ENDBRANCH  14  18
ENDBRANCH   2  14
TORSDOF 7
REMARK  Name = ../refined-set-2016/1j16/1j16_pocket.pdb
REMARK  117 active torsions:
REMARK  status: ('A' for Active; 'I' for Inactive)
REMARK    1  A    between atoms: _1  and  _5
REMARK    2  A    between atoms: _5  and  _6
REMARK    3  A    between atoms: _5  and  _8
REMARK    4  A    between atoms: _8  and  _9
REMARK    5  A    between atoms: _12  and  _14
REMARK    6  A    between atoms: _14  and  _15
REMARK    7  A    between atoms: _14  and  _17
REMARK    8  A    between atoms: _20  and  _22
REMARK    9  A    between atoms: _22  and  _23
REMARK   10  A    between atoms: _22  and  _25
REMARK   11  A    between atoms: _25  and  _26
REMARK   12  A    between atoms: _31  and  _33
REMARK   13  A    between atoms: _33  and  _34
REMARK   14  A    between atoms: _33  and  _36
REMARK   15  A    between atoms: _36  and  _37
REMARK   16  A    between atoms: _42  and  _43
REMARK   17  A    between atoms: _45  and  _47
REMARK   18  A    between atoms: _47  and  _48
REMARK   19  A    between atoms: _47  and  _50
REMARK   20  A    between atoms: _50  and  _51
REMARK   21  A    between atoms: _54  and  _56
REMARK   22  A    between atoms: _56  and  _57
REMARK   23  A    between atoms: _56  and  _59
REMARK   24  A    between atoms: _59  and  _60
REMARK   25  A    between atoms: _65  and  _67
REMARK   26  A    between atoms: _67  and  _68
REMARK   27  A    between atoms: _67  and  _70
REMARK   28  A    between atoms: _70  and  _71
REMARK   29  A    between atoms: _77  and  _79
REMARK   30  A    between atoms: _79  and  _80
REMARK   31  A    between atoms: _79  and  _82
REMARK   32  A    between atoms: _85  and  _87
REMARK   33  A    between atoms: _87  and  _88
REMARK   34  A    between atoms: _87  and  _90
REMARK   35  A    between atoms: _90  and  _91
REMARK   36  A    between atoms: _91  and  _92
REMARK   37  A    between atoms: _92  and  _93
REMARK   38  A    between atoms: _93  and  _94
REMARK   39  A    between atoms: _98  and  _100
REMARK   40  A    between atoms: _100  and  _101
REMARK   41  A    between atoms: _100  and  _103
REMARK   42  A    between atoms: _103  and  _104
REMARK   43  A    between atoms: _107  and  _109
REMARK   44  A    between atoms: _109  and  _110
REMARK   45  A    between atoms: _113  and  _115
REMARK   46  A    between atoms: _115  and  _116
REMARK   47  A    between atoms: _115  and  _118
REMARK   48  A    between atoms: _118  and  _119
REMARK   49  A    between atoms: _119  and  _235
REMARK   50  A    between atoms: _120  and  _122
REMARK   51  A    between atoms: _122  and  _123
REMARK   52  A    between atoms: _122  and  _125
REMARK   53  A    between atoms: _125  and  _126
REMARK   54  A    between atoms: _126  and  _127
REMARK   55  A    between atoms: _132  and  _134
REMARK   56  A    between atoms: _134  and  _135
REMARK   57  A    between atoms: _137  and  _139
REMARK   58  A    between atoms: _139  and  _140
REMARK   59  A    between atoms: _139  and  _142
REMARK   60  A    between atoms: _142  and  _143
REMARK   61  A    between atoms: _146  and  _148
REMARK   62  A    between atoms: _148  and  _149
REMARK   63  A    between atoms: _148  and  _151
REMARK   64  A    between atoms: _151  and  _152
REMARK   65  A    between atoms: _154  and  _156
REMARK   66  A    between atoms: _156  and  _157
REMARK   67  A    between atoms: _159  and  _161
REMARK   68  A    between atoms: _161  and  _162
REMARK   69  A    between atoms: _164  and  _166
REMARK   70  A    between atoms: _166  and  _167
REMARK   71  A    between atoms: _166  and  _169
REMARK   72  A    between atoms: _169  and  _170
REMARK   73  A    between atoms: _173  and  _175
REMARK   74  A    between atoms: _175  and  _176
REMARK   75  A    between atoms: _175  and  _178
REMARK   76  A    between atoms: _181  and  _183
REMARK   77  A    between atoms: _183  and  _184
REMARK   78  A    between atoms: _183  and  _186
REMARK   79  A    between atoms: _186  and  _187
REMARK   80  A    between atoms: _189  and  _191
REMARK   81  A    between atoms: _191  and  _192
REMARK   82  A    between atoms: _191  and  _194
REMARK   83  A    between atoms: _194  and  _195
REMARK   84  A    between atoms: _205  and  _207
REMARK   85  A    between atoms: _207  and  _208
REMARK   86  A    between atoms: _210  and  _212
REMARK   87  A    between atoms: _212  and  _213
REMARK   88  A    between atoms: _212  and  _215
REMARK   89  A    between atoms: _215  and  _216
REMARK   90  A    between atoms: _221  and  _222
REMARK   91  A    between atoms: _224  and  _226
REMARK   92  A    between atoms: _226  and  _227
REMARK   93  A    between atoms: _229  and  _231
REMARK   94  A    between atoms: _231  and  _232
REMARK   95  A    between atoms: _231  and  _234
REMARK   96  A    between atoms: _234  and  _235
REMARK   97  A    between atoms: _236  and  _238
REMARK   98  A    between atoms: _238  and  _239
REMARK   99  A    between atoms: _242  and  _244
REMARK  100  A    between atoms: _244  and  _245
REMARK  101  A    between atoms: _244  and  _247
REMARK  102  A    between atoms: _247  and  _248
REMARK  103  A    between atoms: _251  and  _253
REMARK  104  A    between atoms: _253  and  _254
REMARK  105  A    between atoms: _253  and  _256
REMARK  106  A    between atoms: _256  and  _257
REMARK  107  A    between atoms: _263  and  _264
REMARK  108  A    between atoms: _269  and  _271
REMARK  109  A    between atoms: _271  and  _272
REMARK  110  A    between atoms: _274  and  _276
REMARK  111  A    between atoms: _276  and  _277
REMARK  112  A    between atoms: _276  and  _279
REMARK  113  A    between atoms: _282  and  _284
REMARK  114  A    between atoms: _284  and  _285
REMARK  115  A    between atoms: _284  and  _287
REMARK  116  A    between atoms: _287  and  _288
REMARK  117  A    between atoms: _293  and  _294
REMARK                            x       y       z     vdW  Elec       q    Type
REMARK                         _______ _______ _______ _____ _____    ______ ____
ROOT
ATOM      1  CB  HIS A   1      13.705  40.650  57.040  0.00  0.00    +0.072 C 
ENDROOT
BRANCH   1   2
ATOM      2  CG  HIS A   1      12.494  41.365  56.511  0.00  0.00    +0.082 A 
ATOM      3  CD2 HIS A   1      11.220  41.392  56.953  0.00  0.00    +0.115 A 
ATOM      4  NE2 HIS A   1      10.535  42.306  56.189  0.00  0.00    -0.221 NA
ATOM      5  CE1 HIS A   1      11.371  42.819  55.295  0.00  0.00    +0.199 A 
ATOM      6  ND1 HIS A   1      12.554  42.270  55.468  0.00  0.00    -0.227 NA
ENDBRANCH   1   2
BRANCH   1   7
ATOM      7  CA  HIS A   1      13.850  39.185  56.582  0.00  0.00    +0.139 C 
BRANCH   7   8
ATOM      8  N   HIS A   1      14.601  39.079  55.340  0.00  0.00    -0.239 NA
ATOM      9  H   HIS A   1      14.715  39.913  54.729  0.00  0.00    +0.142 HD
ENDBRANCH   7   8
BRANCH   7  10
ATOM     10  C   HIS A   1      12.526  38.420  56.538  0.00  0.00    +0.224 C 
ATOM     11  O   HIS A   1      11.891  38.221  57.565  0.00  0.00    -0.287 OA
ENDBRANCH   7  10
ENDBRANCH   1   7
TORSDOF 4
REMARK  Name = ../refined-set-2016/1j16/1j16_pocket.pdb
REMARK  117 active torsions:
REMARK  status: ('A' for Active; 'I' for Inactive)
REMARK    1  A    between atoms: _1  and  _5
REMARK    2  A    between atoms: _5  and  _6
REMARK    3  A    between atoms: _5  and  _8
REMARK    4  A    between atoms: _8  and  _9
REMARK    5  A    between atoms: _12  and  _14
REMARK    6  A    between atoms: _14  and  _15
REMARK    7  A    between atoms: _14  and  _17
REMARK    8  A    between atoms: _20  and  _22
REMARK    9  A    between atoms: _22  and  _23
REMARK   10  A    between atoms: _22  and  _25
REMARK   11  A    between atoms: _25  and  _26
REMARK   12  A    between atoms: _31  and  _33
REMARK   13  A    between atoms: _33  and  _34
REMARK   14  A    between atoms: _33  and  _36
REMARK   15  A    between atoms: _36  and  _37
REMARK   16  A    between atoms: _42  and  _43
REMARK   17  A    between atoms: _45  and  _47
REMARK   18  A    between atoms: _47  and  _48
REMARK   19  A    between atoms: _47  and  _50
REMARK   20  A    between atoms: _50  and  _51
REMARK   21  A    between atoms: _54  and  _56
REMARK   22  A    between atoms: _56  and  _57
REMARK   23  A    between atoms: _56  and  _59
REMARK   24  A    between atoms: _59  and  _60
REMARK   25  A    between atoms: _65  and  _67
REMARK   26  A    between atoms: _67  and  _68
REMARK   27  A    between atoms: _67  and  _70
REMARK   28  A    between atoms: _70  and  _71
REMARK   29  A    between atoms: _77  and  _79
REMARK   30  A    between atoms: _79  and  _80
REMARK   31  A    between atoms: _79  and  _82
REMARK   32  A    between atoms: _85  and  _87
REMARK   33  A    between atoms: _87  and  _88
REMARK   34  A    between atoms: _87  and  _90
REMARK   35  A    between atoms: _90  and  _91
REMARK   36  A    between atoms: _91  and  _92
REMARK   37  A    between atoms: _92  and  _93
REMARK   38  A    between atoms: _93  and  _94
REMARK   39  A    between atoms: _98  and  _100
REMARK   40  A    between atoms: _100  and  _101
REMARK   41  A    between atoms: _100  and  _103
REMARK   42  A    between atoms: _103  and  _104
REMARK   43  A    between atoms: _107  and  _109
REMARK   44  A    between atoms: _109  and  _110
REMARK   45  A    between atoms: _113  and  _115
REMARK   46  A    between atoms: _115  and  _116
REMARK   47  A    between atoms: _115  and  _118
REMARK   48  A    between atoms: _118  and  _119
REMARK   49  A    between atoms: _119  and  _235
REMARK   50  A    between atoms: _120  and  _122
REMARK   51  A    between atoms: _122  and  _123
REMARK   52  A    between atoms: _122  and  _125
REMARK   53  A    between atoms: _125  and  _126
REMARK   54  A    between atoms: _126  and  _127
REMARK   55  A    between atoms: _132  and  _134
REMARK   56  A    between atoms: _134  and  _135
REMARK   57  A    between atoms: _137  and  _139
REMARK   58  A    between atoms: _139  and  _140
REMARK   59  A    between atoms: _139  and  _142
REMARK   60  A    between atoms: _142  and  _143
REMARK   61  A    between atoms: _146  and  _148
REMARK   62  A    between atoms: _148  and  _149
REMARK   63  A    between atoms: _148  and  _151
REMARK   64  A    between atoms: _151  and  _152
REMARK   65  A    between atoms: _154  and  _156
REMARK   66  A    between atoms: _156  and  _157
REMARK   67  A    between atoms: _159  and  _161
REMARK   68  A    between atoms: _161  and  _162
REMARK   69  A    between atoms: _164  and  _166
REMARK   70  A    between atoms: _166  and  _167
REMARK   71  A    between atoms: _166  and  _169
REMARK   72  A    between atoms: _169  and  _170
REMARK   73  A    between atoms: _173  and  _175
REMARK   74  A    between atoms: _175  and  _176
REMARK   75  A    between atoms: _175  and  _178
REMARK   76  A    between atoms: _181  and  _183
REMARK   77  A    between atoms: _183  and  _184
REMARK   78  A    between atoms: _183  and  _186
REMARK   79  A    between atoms: _186  and  _187
REMARK   80  A    between atoms: _189  and  _191
REMARK   81  A    between atoms: _191  and  _192
REMARK   82  A    between atoms: _191  and  _194
REMARK   83  A    between atoms: _194  and  _195
REMARK   84  A    between atoms: _205  and  _207
REMARK   85  A    between atoms: _207  and  _208
REMARK   86  A    between atoms: _210  and  _212
REMARK   87  A    between atoms: _212  and  _213
REMARK   88  A    between atoms: _212  and  _215
REMARK   89  A    between atoms: _215  and  _216
REMARK   90  A    between atoms: _221  and  _222
REMARK   91  A    between atoms: _224  and  _226
REMARK   92  A    between atoms: _226  and  _227
REMARK   93  A    between atoms: _229  and  _231
REMARK   94  A    between atoms: _231  and  _232
REMARK   95  A    between atoms: _231  and  _234
REMARK   96  A    between atoms: _234  and  _235
REMARK   97  A    between atoms: _236  and  _238
REMARK   98  A    between atoms: _238  and  _239
REMARK   99  A    between atoms: _242  and  _244
REMARK  100  A    between atoms: _244  and  _245
REMARK  101  A    between atoms: _244  and  _247
REMARK  102  A    between atoms: _247  and  _248
REMARK  103  A    between atoms: _251  and  _253
REMARK  104  A    between atoms: _253  and  _254
REMARK  105  A    between atoms: _253  and  _256
REMARK  106  A    between atoms: _256  and  _257
REMARK  107  A    between atoms: _263  and  _264
REMARK  108  A    between atoms: _269  and  _271
REMARK  109  A    between atoms: _271  and  _272
REMARK  110  A    between atoms: _274  and  _276
REMARK  111  A    between atoms: _276  and  _277
REMARK  112  A    between atoms: _276  and  _279
REMARK  113  A    between atoms: _282  and  _284
REMARK  114  A    between atoms: _284  and  _285
REMARK  115  A    between atoms: _284  and  _287
REMARK  116  A    between atoms: _287  and  _288
REMARK  117  A    between atoms: _293  and  _294
REMARK                            x       y       z     vdW  Elec       q    Type
REMARK                         _______ _______ _______ _____ _____    ______ ____
ROOT
ATOM      1  CG  TYR A   1      16.097  44.870  57.503  0.00  0.00    -0.020 A 
ATOM      2  CD2 TYR A   1      16.464  44.058  58.573  0.00  0.00    -0.001 A 
ATOM      3  CE2 TYR A   1      15.523  43.383  59.321  0.00  0.00    +0.036 A 
ATOM      4  CZ  TYR A   1      14.181  43.514  59.004  0.00  0.00    +0.134 A 
ATOM      5  CE1 TYR A   1      13.784  44.312  57.937  0.00  0.00    +0.036 A 
ATOM      6  CD1 TYR A   1      14.746  44.985  57.193  0.00  0.00    -0.001 A 
ENDROOT
BRANCH   4   7
ATOM      7  OH  TYR A   1      13.250  42.834  59.754  0.00  0.00    -0.506 OA
ATOM      8  HH  TYR A   1      13.711  42.322  60.465  0.00  0.00    +0.292 HD
ENDBRANCH   4   7
BRANCH   1   9
ATOM      9  CB  TYR A   1      17.139  45.612  56.714  0.00  0.00    +0.051 C 
BRANCH   9  10
ATOM     10  CA  TYR A   1      18.538  45.039  56.910  0.00  0.00    +0.137 C 
BRANCH  10  11
ATOM     11  N   TYR A   1      19.197  45.532  58.119  0.00  0.00    -0.239 NA
ATOM     12  H   TYR A   1      19.510  44.837  58.827  0.00  0.00    +0.142 HD
ENDBRANCH  10  11
BRANCH  10  13
ATOM     13  C   TYR A   1      19.406  45.235  55.669  0.00  0.00    +0.224 C 
ATOM     14  O   TYR A   1      18.913  45.256  54.542  0.00  0.00    -0.287 OA
ENDBRANCH  10  13
ENDBRANCH   9  10
ENDBRANCH   1   9
TORSDOF 5
REMARK  Name = ../refined-set-2016/1j16/1j16_pocket.pdb
REMARK  117 active torsions:
REMARK  status: ('A' for Active; 'I' for Inactive)
REMARK    1  A    between atoms: _1  and  _5
REMARK    2  A    between atoms: _5  and  _6
REMARK    3  A    between atoms: _5  and  _8
REMARK    4  A    between atoms: _8  and  _9
REMARK    5  A    between atoms: _12  and  _14
REMARK    6  A    between atoms: _14  and  _15
REMARK    7  A    between atoms: _14  and  _17
REMARK    8  A    between atoms: _20  and  _22
REMARK    9  A    between atoms: _22  and  _23
REMARK   10  A    between atoms: _22  and  _25
REMARK   11  A    between atoms: _25  and  _26
REMARK   12  A    between atoms: _31  and  _33
REMARK   13  A    between atoms: _33  and  _34
REMARK   14  A    between atoms: _33  and  _36
REMARK   15  A    between atoms: _36  and  _37
REMARK   16  A    between atoms: _42  and  _43
REMARK   17  A    between atoms: _45  and  _47
REMARK   18  A    between atoms: _47  and  _48
REMARK   19  A    between atoms: _47  and  _50
REMARK   20  A    between atoms: _50  and  _51
REMARK   21  A    between atoms: _54  and  _56
REMARK   22  A    between atoms: _56  and  _57
REMARK   23  A    between atoms: _56  and  _59
REMARK   24  A    between atoms: _59  and  _60
REMARK   25  A    between atoms: _65  and  _67
REMARK   26  A    between atoms: _67  and  _68
REMARK   27  A    between atoms: _67  and  _70
REMARK   28  A    between atoms: _70  and  _71
REMARK   29  A    between atoms: _77  and  _79
REMARK   30  A    between atoms: _79  and  _80
REMARK   31  A    between atoms: _79  and  _82
REMARK   32  A    between atoms: _85  and  _87
REMARK   33  A    between atoms: _87  and  _88
REMARK   34  A    between atoms: _87  and  _90
REMARK   35  A    between atoms: _90  and  _91
REMARK   36  A    between atoms: _91  and  _92
REMARK   37  A    between atoms: _92  and  _93
REMARK   38  A    between atoms: _93  and  _94
REMARK   39  A    between atoms: _98  and  _100
REMARK   40  A    between atoms: _100  and  _101
REMARK   41  A    between atoms: _100  and  _103
REMARK   42  A    between atoms: _103  and  _104
REMARK   43  A    between atoms: _107  and  _109
REMARK   44  A    between atoms: _109  and  _110
REMARK   45  A    between atoms: _113  and  _115
REMARK   46  A    between atoms: _115  and  _116
REMARK   47  A    between atoms: _115  and  _118
REMARK   48  A    between atoms: _118  and  _119
REMARK   49  A    between atoms: _119  and  _235
REMARK   50  A    between atoms: _120  and  _122
REMARK   51  A    between atoms: _122  and  _123
REMARK   52  A    between atoms: _122  and  _125
REMARK   53  A    between atoms: _125  and  _126
REMARK   54  A    between atoms: _126  and  _127
REMARK   55  A    between atoms: _132  and  _134
REMARK   56  A    between atoms: _134  and  _135
REMARK   57  A    between atoms: _137  and  _139
REMARK   58  A    between atoms: _139  and  _140
REMARK   59  A    between atoms: _139  and  _142
REMARK   60  A    between atoms: _142  and  _143
REMARK   61  A    between atoms: _146  and  _148
REMARK   62  A    between atoms: _148  and  _149
REMARK   63  A    between atoms: _148  and  _151
REMARK   64  A    between atoms: _151  and  _152
REMARK   65  A    between atoms: _154  and  _156
REMARK   66  A    between atoms: _156  and  _157
REMARK   67  A    between atoms: _159  and  _161
REMARK   68  A    between atoms: _161  and  _162
REMARK   69  A    between atoms: _164  and  _166
REMARK   70  A    between atoms: _166  and  _167
REMARK   71  A    between atoms: _166  and  _169
REMARK   72  A    between atoms: _169  and  _170
REMARK   73  A    between atoms: _173  and  _175
REMARK   74  A    between atoms: _175  and  _176
REMARK   75  A    between atoms: _175  and  _178
REMARK   76  A    between atoms: _181  and  _183
REMARK   77  A    between atoms: _183  and  _184
REMARK   78  A    between atoms: _183  and  _186
REMARK   79  A    between atoms: _186  and  _187
REMARK   80  A    between atoms: _189  and  _191
REMARK   81  A    between atoms: _191  and  _192
REMARK   82  A    between atoms: _191  and  _194
REMARK   83  A    between atoms: _194  and  _195
REMARK   84  A    between atoms: _205  and  _207
REMARK   85  A    between atoms: _207  and  _208
REMARK   86  A    between atoms: _210  and  _212
REMARK   87  A    between atoms: _212  and  _213
REMARK   88  A    between atoms: _212  and  _215
REMARK   89  A    between atoms: _215  and  _216
REMARK   90  A    between atoms: _221  and  _222
REMARK   91  A    between atoms: _224  and  _226
REMARK   92  A    between atoms: _226  and  _227
REMARK   93  A    between atoms: _229  and  _231
REMARK   94  A    between atoms: _231  and  _232
REMARK   95  A    between atoms: _231  and  _234
REMARK   96  A    between atoms: _234  and  _235
REMARK   97  A    between atoms: _236  and  _238
REMARK   98  A    between atoms: _238  and  _239
REMARK   99  A    between atoms: _242  and  _244
REMARK  100  A    between atoms: _244  and  _245
REMARK  101  A    between atoms: _244  and  _247
REMARK  102  A    between atoms: _247  and  _248
REMARK  103  A    between atoms: _251  and  _253
REMARK  104  A    between atoms: _253  and  _254
REMARK  105  A    between atoms: _253  and  _256
REMARK  106  A    between atoms: _256  and  _257
REMARK  107  A    between atoms: _263  and  _264
REMARK  108  A    between atoms: _269  and  _271
REMARK  109  A    between atoms: _271  and  _272
REMARK  110  A    between atoms: _274  and  _276
REMARK  111  A    between atoms: _276  and  _277
REMARK  112  A    between atoms: _276  and  _279
REMARK  113  A    between atoms: _282  and  _284
REMARK  114  A    between atoms: _284  and  _285
REMARK  115  A    between atoms: _284  and  _287
REMARK  116  A    between atoms: _287  and  _288
REMARK  117  A    between atoms: _293  and  _294
REMARK                            x       y       z     vdW  Elec       q    Type
REMARK                         _______ _______ _______ _____ _____    ______ ____
ROOT
ATOM      1  CA  ILE A   1       5.182  48.594  43.658  0.00  0.00    +0.133 C 
ENDROOT
BRANCH   1   2
ATOM      2  N   ILE A   1       4.988  49.339  42.420  0.00  0.00    -0.239 NA
ATOM      3  H   ILE A   1       4.353  50.162  42.423  0.00  0.00    +0.142 HD
ENDBRANCH   1   2
BRANCH   1   4
ATOM      4  CB  ILE A   1       5.472  49.533  44.855  0.00  0.00    +0.023 C 
ATOM      5  CG2 ILE A   1       5.932  48.700  46.065  0.00  0.00    +0.002 C 
BRANCH   4   6
ATOM      6  CG1 ILE A   1       6.538  50.563  44.468  0.00  0.00    +0.002 C 
ATOM      7  CD1 ILE A   1       6.849  51.554  45.550  0.00  0.00    +0.000 C 
ENDBRANCH   4   6
ENDBRANCH   1   4
BRANCH   1   8
ATOM      8  C   ILE A   1       3.857  47.865  43.911  0.00  0.00    +0.224 C 
ATOM      9  O   ILE A   1       2.788  48.437  43.681  0.00  0.00    -0.287 OA
ENDBRANCH   1   8
TORSDOF 4
REMARK  Name = ../refined-set-2016/1j16/1j16_pocket.pdb
REMARK  117 active torsions:
REMARK  status: ('A' for Active; 'I' for Inactive)
REMARK    1  A    between atoms: _1  and  _5
REMARK    2  A    between atoms: _5  and  _6
REMARK    3  A    between atoms: _5  and  _8
REMARK    4  A    between atoms: _8  and  _9
REMARK    5  A    between atoms: _12  and  _14
REMARK    6  A    between atoms: _14  and  _15
REMARK    7  A    between atoms: _14  and  _17
REMARK    8  A    between atoms: _20  and  _22
REMARK    9  A    between atoms: _22  and  _23
REMARK   10  A    between atoms: _22  and  _25
REMARK   11  A    between atoms: _25  and  _26
REMARK   12  A    between atoms: _31  and  _33
REMARK   13  A    between atoms: _33  and  _34
REMARK   14  A    between atoms: _33  and  _36
REMARK   15  A    between atoms: _36  and  _37
REMARK   16  A    between atoms: _42  and  _43
REMARK   17  A    between atoms: _45  and  _47
REMARK   18  A    between atoms: _47  and  _48
REMARK   19  A    between atoms: _47  and  _50
REMARK   20  A    between atoms: _50  and  _51
REMARK   21  A    between atoms: _54  and  _56
REMARK   22  A    between atoms: _56  and  _57
REMARK   23  A    between atoms: _56  and  _59
REMARK   24  A    between atoms: _59  and  _60
REMARK   25  A    between atoms: _65  and  _67
REMARK   26  A    between atoms: _67  and  _68
REMARK   27  A    between atoms: _67  and  _70
REMARK   28  A    between atoms: _70  and  _71
REMARK   29  A    between atoms: _77  and  _79
REMARK   30  A    between atoms: _79  and  _80
REMARK   31  A    between atoms: _79  and  _82
REMARK   32  A    between atoms: _85  and  _87
REMARK   33  A    between atoms: _87  and  _88
REMARK   34  A    between atoms: _87  and  _90
REMARK   35  A    between atoms: _90  and  _91
REMARK   36  A    between atoms: _91  and  _92
REMARK   37  A    between atoms: _92  and  _93
REMARK   38  A    between atoms: _93  and  _94
REMARK   39  A    between atoms: _98  and  _100
REMARK   40  A    between atoms: _100  and  _101
REMARK   41  A    between atoms: _100  and  _103
REMARK   42  A    between atoms: _103  and  _104
REMARK   43  A    between atoms: _107  and  _109
REMARK   44  A    between atoms: _109  and  _110
REMARK   45  A    between atoms: _113  and  _115
REMARK   46  A    between atoms: _115  and  _116
REMARK   47  A    between atoms: _115  and  _118
REMARK   48  A    between atoms: _118  and  _119
REMARK   49  A    between atoms: _119  and  _235
REMARK   50  A    between atoms: _120  and  _122
REMARK   51  A    between atoms: _122  and  _123
REMARK   52  A    between atoms: _122  and  _125
REMARK   53  A    between atoms: _125  and  _126
REMARK   54  A    between atoms: _126  and  _127
REMARK   55  A    between atoms: _132  and  _134
REMARK   56  A    between atoms: _134  and  _135
REMARK   57  A    between atoms: _137  and  _139
REMARK   58  A    between atoms: _139  and  _140
REMARK   59  A    between atoms: _139  and  _142
REMARK   60  A    between atoms: _142  and  _143
REMARK   61  A    between atoms: _146  and  _148
REMARK   62  A    between atoms: _148  and  _149
REMARK   63  A    between atoms: _148  and  _151
REMARK   64  A    between atoms: _151  and  _152
REMARK   65  A    between atoms: _154  and  _156
REMARK   66  A    between atoms: _156  and  _157
REMARK   67  A    between atoms: _159  and  _161
REMARK   68  A    between atoms: _161  and  _162
REMARK   69  A    between atoms: _164  and  _166
REMARK   70  A    between atoms: _166  and  _167
REMARK   71  A    between atoms: _166  and  _169
REMARK   72  A    between atoms: _169  and  _170
REMARK   73  A    between atoms: _173  and  _175
REMARK   74  A    between atoms: _175  and  _176
REMARK   75  A    between atoms: _175  and  _178
REMARK   76  A    between atoms: _181  and  _183
REMARK   77  A    between atoms: _183  and  _184
REMARK   78  A    between atoms: _183  and  _186
REMARK   79  A    between atoms: _186  and  _187
REMARK   80  A    between atoms: _189  and  _191
REMARK   81  A    between atoms: _191  and  _192
REMARK   82  A    between atoms: _191  and  _194
REMARK   83  A    between atoms: _194  and  _195
REMARK   84  A    between atoms: _205  and  _207
REMARK   85  A    between atoms: _207  and  _208
REMARK   86  A    between atoms: _210  and  _212
REMARK   87  A    between atoms: _212  and  _213
REMARK   88  A    between atoms: _212  and  _215
REMARK   89  A    between atoms: _215  and  _216
REMARK   90  A    between atoms: _221  and  _222
REMARK   91  A    between atoms: _224  and  _226
REMARK   92  A    between atoms: _226  and  _227
REMARK   93  A    between atoms: _229  and  _231
REMARK   94  A    between atoms: _231  and  _232
REMARK   95  A    between atoms: _231  and  _234
REMARK   96  A    between atoms: _234  and  _235
REMARK   97  A    between atoms: _236  and  _238
REMARK   98  A    between atoms: _238  and  _239
REMARK   99  A    between atoms: _242  and  _244
REMARK  100  A    between atoms: _244  and  _245
REMARK  101  A    between atoms: _244  and  _247
REMARK  102  A    between atoms: _247  and  _248
REMARK  103  A    between atoms: _251  and  _253
REMARK  104  A    between atoms: _253  and  _254
REMARK  105  A    between atoms: _253  and  _256
REMARK  106  A    between atoms: _256  and  _257
REMARK  107  A    between atoms: _263  and  _264
REMARK  108  A    between atoms: _269  and  _271
REMARK  109  A    between atoms: _271  and  _272
REMARK  110  A    between atoms: _274  and  _276
REMARK  111  A    between atoms: _276  and  _277
REMARK  112  A    between atoms: _276  and  _279
REMARK  113  A    between atoms: _282  and  _284
REMARK  114  A    between atoms: _284  and  _285
REMARK  115  A    between atoms: _284  and  _287
REMARK  116  A    between atoms: _287  and  _288
REMARK  117  A    between atoms: _293  and  _294
REMARK                            x       y       z     vdW  Elec       q    Type
REMARK                         _______ _______ _______ _____ _____    ______ ____
ROOT
ATOM      1  CB  ASN A   1      -0.458  47.212  56.510  0.00  0.00    +0.110 C 
ENDROOT
BRANCH   1   2
ATOM      2  CG  ASN A   1      -1.280  48.096  57.417  0.00  0.00    +0.221 C 
ATOM      3  ND2 ASN A   1      -0.634  48.615  58.453  0.00  0.00    -0.329 N 
ATOM      4 HD21 ASN A   1      -1.140  49.220  59.131  0.00  0.00    +0.145 HD
ATOM      5 HD22 ASN A   1       0.378  48.416  58.587  0.00  0.00    +0.145 HD
ATOM      6  OD1 ASN A   1      -2.475  48.299  57.212  0.00  0.00    -0.275 OA
ENDBRANCH   1   2
BRANCH   1   7
ATOM      7  CA  ASN A   1      -1.205  46.769  55.245  0.00  0.00    +0.142 C 
BRANCH   7   8
ATOM      8  N   ASN A   1      -0.347  45.817  54.545  0.00  0.00    -0.239 NA
ATOM      9  H   ASN A   1       0.526  45.512  55.022  0.00  0.00    +0.142 HD
ENDBRANCH   7   8
BRANCH   7  10
ATOM     10  C   ASN A   1      -1.523  47.978  54.350  0.00  0.00    +0.225 C 
ATOM     11  O   ASN A   1      -0.629  48.500  53.666  0.00  0.00    -0.287 OA
ENDBRANCH   7  10
ENDBRANCH   1   7
TORSDOF 4
REMARK  Name = ../refined-set-2016/1j16/1j16_pocket.pdb
REMARK  117 active torsions:
REMARK  status: ('A' for Active; 'I' for Inactive)
REMARK    1  A    between atoms: _1  and  _5
REMARK    2  A    between atoms: _5  and  _6
REMARK    3  A    between atoms: _5  and  _8
REMARK    4  A    between atoms: _8  and  _9
REMARK    5  A    between atoms: _12  and  _14
REMARK    6  A    between atoms: _14  and  _15
REMARK    7  A    between atoms: _14  and  _17
REMARK    8  A    between atoms: _20  and  _22
REMARK    9  A    between atoms: _22  and  _23
REMARK   10  A    between atoms: _22  and  _25
REMARK   11  A    between atoms: _25  and  _26
REMARK   12  A    between atoms: _31  and  _33
REMARK   13  A    between atoms: _33  and  _34
REMARK   14  A    between atoms: _33  and  _36
REMARK   15  A    between atoms: _36  and  _37
REMARK   16  A    between atoms: _42  and  _43
REMARK   17  A    between atoms: _45  and  _47
REMARK   18  A    between atoms: _47  and  _48
REMARK   19  A    between atoms: _47  and  _50
REMARK   20  A    between atoms: _50  and  _51
REMARK   21  A    between atoms: _54  and  _56
REMARK   22  A    between atoms: _56  and  _57
REMARK   23  A    between atoms: _56  and  _59
REMARK   24  A    between atoms: _59  and  _60
REMARK   25  A    between atoms: _65  and  _67
REMARK   26  A    between atoms: _67  and  _68
REMARK   27  A    between atoms: _67  and  _70
REMARK   28  A    between atoms: _70  and  _71
REMARK   29  A    between atoms: _77  and  _79
REMARK   30  A    between atoms: _79  and  _80
REMARK   31  A    between atoms: _79  and  _82
REMARK   32  A    between atoms: _85  and  _87
REMARK   33  A    between atoms: _87  and  _88
REMARK   34  A    between atoms: _87  and  _90
REMARK   35  A    between atoms: _90  and  _91
REMARK   36  A    between atoms: _91  and  _92
REMARK   37  A    between atoms: _92  and  _93
REMARK   38  A    between atoms: _93  and  _94
REMARK   39  A    between atoms: _98  and  _100
REMARK   40  A    between atoms: _100  and  _101
REMARK   41  A    between atoms: _100  and  _103
REMARK   42  A    between atoms: _103  and  _104
REMARK   43  A    between atoms: _107  and  _109
REMARK   44  A    between atoms: _109  and  _110
REMARK   45  A    between atoms: _113  and  _115
REMARK   46  A    between atoms: _115  and  _116
REMARK   47  A    between atoms: _115  and  _118
REMARK   48  A    between atoms: _118  and  _119
REMARK   49  A    between atoms: _119  and  _235
REMARK   50  A    between atoms: _120  and  _122
REMARK   51  A    between atoms: _122  and  _123
REMARK   52  A    between atoms: _122  and  _125
REMARK   53  A    between atoms: _125  and  _126
REMARK   54  A    between atoms: _126  and  _127
REMARK   55  A    between atoms: _132  and  _134
REMARK   56  A    between atoms: _134  and  _135
REMARK   57  A    between atoms: _137  and  _139
REMARK   58  A    between atoms: _139  and  _140
REMARK   59  A    between atoms: _139  and  _142
REMARK   60  A    between atoms: _142  and  _143
REMARK   61  A    between atoms: _146  and  _148
REMARK   62  A    between atoms: _148  and  _149
REMARK   63  A    between atoms: _148  and  _151
REMARK   64  A    between atoms: _151  and  _152
REMARK   65  A    between atoms: _154  and  _156
REMARK   66  A    between atoms: _156  and  _157
REMARK   67  A    between atoms: _159  and  _161
REMARK   68  A    between atoms: _161  and  _162
REMARK   69  A    between atoms: _164  and  _166
REMARK   70  A    between atoms: _166  and  _167
REMARK   71  A    between atoms: _166  and  _169
REMARK   72  A    between atoms: _169  and  _170
REMARK   73  A    between atoms: _173  and  _175
REMARK   74  A    between atoms: _175  and  _176
REMARK   75  A    between atoms: _175  and  _178
REMARK   76  A    between atoms: _181  and  _183
REMARK   77  A    between atoms: _183  and  _184
REMARK   78  A    between atoms: _183  and  _186
REMARK   79  A    between atoms: _186  and  _187
REMARK   80  A    between atoms: _189  and  _191
REMARK   81  A    between atoms: _191  and  _192
REMARK   82  A    between atoms: _191  and  _194
REMARK   83  A    between atoms: _194  and  _195
REMARK   84  A    between atoms: _205  and  _207
REMARK   85  A    between atoms: _207  and  _208
REMARK   86  A    between atoms: _210  and  _212
REMARK   87  A    between atoms: _212  and  _213
REMARK   88  A    between atoms: _212  and  _215
REMARK   89  A    between atoms: _215  and  _216
REMARK   90  A    between atoms: _221  and  _222
REMARK   91  A    between atoms: _224  and  _226
REMARK   92  A    between atoms: _226  and  _227
REMARK   93  A    between atoms: _229  and  _231
REMARK   94  A    between atoms: _231  and  _232
REMARK   95  A    between atoms: _231  and  _234
REMARK   96  A    between atoms: _234  and  _235
REMARK   97  A    between atoms: _236  and  _238
REMARK   98  A    between atoms: _238  and  _239
REMARK   99  A    between atoms: _242  and  _244
REMARK  100  A    between atoms: _244  and  _245
REMARK  101  A    between atoms: _244  and  _247
REMARK  102  A    between atoms: _247  and  _248
REMARK  103  A    between atoms: _251  and  _253
REMARK  104  A    between atoms: _253  and  _254
REMARK  105  A    between atoms: _253  and  _256
REMARK  106  A    between atoms: _256  and  _257
REMARK  107  A    between atoms: _263  and  _264
REMARK  108  A    between atoms: _269  and  _271
REMARK  109  A    between atoms: _271  and  _272
REMARK  110  A    between atoms: _274  and  _276
REMARK  111  A    between atoms: _276  and  _277
REMARK  112  A    between atoms: _276  and  _279
REMARK  113  A    between atoms: _282  and  _284
REMARK  114  A    between atoms: _284  and  _285
REMARK  115  A    between atoms: _284  and  _287
REMARK  116  A    between atoms: _287  and  _288
REMARK  117  A    between atoms: _293  and  _294
REMARK                            x       y       z     vdW  Elec       q    Type
REMARK                         _______ _______ _______ _____ _____    ______ ____
ROOT
ATOM      1  CB  PHE A   1      15.867  55.981  58.709  0.00  0.00    +0.051 C 
ENDROOT
BRANCH   1   2
ATOM      2  CG  PHE A   1      15.047  56.182  57.450  0.00  0.00    -0.020 A 
ATOM      3  CD2 PHE A   1      13.688  56.492  57.529  0.00  0.00    -0.004 A 
ATOM      4  CE2 PHE A   1      12.932  56.709  56.375  0.00  0.00    -0.000 A 
ATOM      5  CZ  PHE A   1      13.540  56.623  55.123  0.00  0.00    -0.000 A 
ATOM      6  CE1 PHE A   1      14.896  56.311  55.030  0.00  0.00    -0.000 A 
ATOM      7  CD1 PHE A   1      15.641  56.095  56.187  0.00  0.00    -0.004 A 
ENDBRANCH   1   2
BRANCH   1   8
ATOM      8  CA  PHE A   1      16.716  57.206  59.104  0.00  0.00    +0.137 C 
BRANCH   8   9
ATOM      9  N   PHE A   1      15.854  58.351  59.424  0.00  0.00    -0.239 NA
ATOM     10  H   PHE A   1      15.774  59.126  58.735  0.00  0.00    +0.142 HD
ENDBRANCH   8   9
BRANCH   8  11
ATOM     11  C   PHE A   1      17.660  57.546  57.960  0.00  0.00    +0.224 C 
ATOM     12  O   PHE A   1      17.517  58.590  57.326  0.00  0.00    -0.287 OA
ENDBRANCH   8  11
ENDBRANCH   1   8
TORSDOF 4
REMARK  Name = ../refined-set-2016/1j16/1j16_pocket.pdb
REMARK  117 active torsions:
REMARK  status: ('A' for Active; 'I' for Inactive)
REMARK    1  A    between atoms: _1  and  _5
REMARK    2  A    between atoms: _5  and  _6
REMARK    3  A    between atoms: _5  and  _8
REMARK    4  A    between atoms: _8  and  _9
REMARK    5  A    between atoms: _12  and  _14
REMARK    6  A    between atoms: _14  and  _15
REMARK    7  A    between atoms: _14  and  _17
REMARK    8  A    between atoms: _20  and  _22
REMARK    9  A    between atoms: _22  and  _23
REMARK   10  A    between atoms: _22  and  _25
REMARK   11  A    between atoms: _25  and  _26
REMARK   12  A    between atoms: _31  and  _33
REMARK   13  A    between atoms: _33  and  _34
REMARK   14  A    between atoms: _33  and  _36
REMARK   15  A    between atoms: _36  and  _37
REMARK   16  A    between atoms: _42  and  _43
REMARK   17  A    between atoms: _45  and  _47
REMARK   18  A    between atoms: _47  and  _48
REMARK   19  A    between atoms: _47  and  _50
REMARK   20  A    between atoms: _50  and  _51
REMARK   21  A    between atoms: _54  and  _56
REMARK   22  A    between atoms: _56  and  _57
REMARK   23  A    between atoms: _56  and  _59
REMARK   24  A    between atoms: _59  and  _60
REMARK   25  A    between atoms: _65  and  _67
REMARK   26  A    between atoms: _67  and  _68
REMARK   27  A    between atoms: _67  and  _70
REMARK   28  A    between atoms: _70  and  _71
REMARK   29  A    between atoms: _77  and  _79
REMARK   30  A    between atoms: _79  and  _80
REMARK   31  A    between atoms: _79  and  _82
REMARK   32  A    between atoms: _85  and  _87
REMARK   33  A    between atoms: _87  and  _88
REMARK   34  A    between atoms: _87  and  _90
REMARK   35  A    between atoms: _90  and  _91
REMARK   36  A    between atoms: _91  and  _92
REMARK   37  A    between atoms: _92  and  _93
REMARK   38  A    between atoms: _93  and  _94
REMARK   39  A    between atoms: _98  and  _100
REMARK   40  A    between atoms: _100  and  _101
REMARK   41  A    between atoms: _100  and  _103
REMARK   42  A    between atoms: _103  and  _104
REMARK   43  A    between atoms: _107  and  _109
REMARK   44  A    between atoms: _109  and  _110
REMARK   45  A    between atoms: _113  and  _115
REMARK   46  A    between atoms: _115  and  _116
REMARK   47  A    between atoms: _115  and  _118
REMARK   48  A    between atoms: _118  and  _119
REMARK   49  A    between atoms: _119  and  _235
REMARK   50  A    between atoms: _120  and  _122
REMARK   51  A    between atoms: _122  and  _123
REMARK   52  A    between atoms: _122  and  _125
REMARK   53  A    between atoms: _125  and  _126
REMARK   54  A    between atoms: _126  and  _127
REMARK   55  A    between atoms: _132  and  _134
REMARK   56  A    between atoms: _134  and  _135
REMARK   57  A    between atoms: _137  and  _139
REMARK   58  A    between atoms: _139  and  _140
REMARK   59  A    between atoms: _139  and  _142
REMARK   60  A    between atoms: _142  and  _143
REMARK   61  A    between atoms: _146  and  _148
REMARK   62  A    between atoms: _148  and  _149
REMARK   63  A    between atoms: _148  and  _151
REMARK   64  A    between atoms: _151  and  _152
REMARK   65  A    between atoms: _154  and  _156
REMARK   66  A    between atoms: _156  and  _157
REMARK   67  A    between atoms: _159  and  _161
REMARK   68  A    between atoms: _161  and  _162
REMARK   69  A    between atoms: _164  and  _166
REMARK   70  A    between atoms: _166  and  _167
REMARK   71  A    between atoms: _166  and  _169
REMARK   72  A    between atoms: _169  and  _170
REMARK   73  A    between atoms: _173  and  _175
REMARK   74  A    between atoms: _175  and  _176
REMARK   75  A    between atoms: _175  and  _178
REMARK   76  A    between atoms: _181  and  _183
REMARK   77  A    between atoms: _183  and  _184
REMARK   78  A    between atoms: _183  and  _186
REMARK   79  A    between atoms: _186  and  _187
REMARK   80  A    between atoms: _189  and  _191
REMARK   81  A    between atoms: _191  and  _192
REMARK   82  A    between atoms: _191  and  _194
REMARK   83  A    between atoms: _194  and  _195
REMARK   84  A    between atoms: _205  and  _207
REMARK   85  A    between atoms: _207  and  _208
REMARK   86  A    between atoms: _210  and  _212
REMARK   87  A    between atoms: _212  and  _213
REMARK   88  A    between atoms: _212  and  _215
REMARK   89  A    between atoms: _215  and  _216
REMARK   90  A    between atoms: _221  and  _222
REMARK   91  A    between atoms: _224  and  _226
REMARK   92  A    between atoms: _226  and  _227
REMARK   93  A    between atoms: _229  and  _231
REMARK   94  A    between atoms: _231  and  _232
REMARK   95  A    between atoms: _231  and  _234
REMARK   96  A    between atoms: _234  and  _235
REMARK   97  A    between atoms: _236  and  _238
REMARK   98  A    between atoms: _238  and  _239
REMARK   99  A    between atoms: _242  and  _244
REMARK  100  A    between atoms: _244  and  _245
REMARK  101  A    between atoms: _244  and  _247
REMARK  102  A    between atoms: _247  and  _248
REMARK  103  A    between atoms: _251  and  _253
REMARK  104  A    between atoms: _253  and  _254
REMARK  105  A    between atoms: _253  and  _256
REMARK  106  A    between atoms: _256  and  _257
REMARK  107  A    between atoms: _263  and  _264
REMARK  108  A    between atoms: _269  and  _271
REMARK  109  A    between atoms: _271  and  _272
REMARK  110  A    between atoms: _274  and  _276
REMARK  111  A    between atoms: _276  and  _277
REMARK  112  A    between atoms: _276  and  _279
REMARK  113  A    between atoms: _282  and  _284
REMARK  114  A    between atoms: _284  and  _285
REMARK  115  A    between atoms: _284  and  _287
REMARK  116  A    between atoms: _287  and  _288
REMARK  117  A    between atoms: _293  and  _294
REMARK                            x       y       z     vdW  Elec       q    Type
REMARK                         _______ _______ _______ _____ _____    ______ ____
ROOT
ATOM      1  CA  VAL A   1      11.150  54.807  46.416  0.00  0.00    +0.133 C 
ENDROOT
BRANCH   1   2
ATOM      2  CB  VAL A   1      10.889  53.384  45.803  0.00  0.00    +0.023 C 
ATOM      3  CG2 VAL A   1      12.214  52.686  45.431  0.00  0.00    +0.002 C 
ATOM      4  CG1 VAL A   1       9.985  53.488  44.580  0.00  0.00    +0.002 C 
ENDBRANCH   1   2
BRANCH   1   5
ATOM      5  N   VAL A   1      12.126  54.754  47.498  0.00  0.00    -0.239 NA
ATOM      6  H   VAL A   1      11.827  54.408  48.432  0.00  0.00    +0.142 HD
ENDBRANCH   1   5
BRANCH   1   7
ATOM      7  C   VAL A   1       9.866  55.329  47.041  0.00  0.00    +0.224 C 
ATOM      8  O   VAL A   1       9.504  54.932  48.157  0.00  0.00    -0.287 OA
ENDBRANCH   1   7
TORSDOF 3
REMARK  Name = ../refined-set-2016/1j16/1j16_pocket.pdb
REMARK  117 active torsions:
REMARK  status: ('A' for Active; 'I' for Inactive)
REMARK    1  A    between atoms: _1  and  _5
REMARK    2  A    between atoms: _5  and  _6
REMARK    3  A    between atoms: _5  and  _8
REMARK    4  A    between atoms: _8  and  _9
REMARK    5  A    between atoms: _12  and  _14
REMARK    6  A    between atoms: _14  and  _15
REMARK    7  A    between atoms: _14  and  _17
REMARK    8  A    between atoms: _20  and  _22
REMARK    9  A    between atoms: _22  and  _23
REMARK   10  A    between atoms: _22  and  _25
REMARK   11  A    between atoms: _25  and  _26
REMARK   12  A    between atoms: _31  and  _33
REMARK   13  A    between atoms: _33  and  _34
REMARK   14  A    between atoms: _33  and  _36
REMARK   15  A    between atoms: _36  and  _37
REMARK   16  A    between atoms: _42  and  _43
REMARK   17  A    between atoms: _45  and  _47
REMARK   18  A    between atoms: _47  and  _48
REMARK   19  A    between atoms: _47  and  _50
REMARK   20  A    between atoms: _50  and  _51
REMARK   21  A    between atoms: _54  and  _56
REMARK   22  A    between atoms: _56  and  _57
REMARK   23  A    between atoms: _56  and  _59
REMARK   24  A    between atoms: _59  and  _60
REMARK   25  A    between atoms: _65  and  _67
REMARK   26  A    between atoms: _67  and  _68
REMARK   27  A    between atoms: _67  and  _70
REMARK   28  A    between atoms: _70  and  _71
REMARK   29  A    between atoms: _77  and  _79
REMARK   30  A    between atoms: _79  and  _80
REMARK   31  A    between atoms: _79  and  _82
REMARK   32  A    between atoms: _85  and  _87
REMARK   33  A    between atoms: _87  and  _88
REMARK   34  A    between atoms: _87  and  _90
REMARK   35  A    between atoms: _90  and  _91
REMARK   36  A    between atoms: _91  and  _92
REMARK   37  A    between atoms: _92  and  _93
REMARK   38  A    between atoms: _93  and  _94
REMARK   39  A    between atoms: _98  and  _100
REMARK   40  A    between atoms: _100  and  _101
REMARK   41  A    between atoms: _100  and  _103
REMARK   42  A    between atoms: _103  and  _104
REMARK   43  A    between atoms: _107  and  _109
REMARK   44  A    between atoms: _109  and  _110
REMARK   45  A    between atoms: _113  and  _115
REMARK   46  A    between atoms: _115  and  _116
REMARK   47  A    between atoms: _115  and  _118
REMARK   48  A    between atoms: _118  and  _119
REMARK   49  A    between atoms: _119  and  _235
REMARK   50  A    between atoms: _120  and  _122
REMARK   51  A    between atoms: _122  and  _123
REMARK   52  A    between atoms: _122  and  _125
REMARK   53  A    between atoms: _125  and  _126
REMARK   54  A    between atoms: _126  and  _127
REMARK   55  A    between atoms: _132  and  _134
REMARK   56  A    between atoms: _134  and  _135
REMARK   57  A    between atoms: _137  and  _139
REMARK   58  A    between atoms: _139  and  _140
REMARK   59  A    between atoms: _139  and  _142
REMARK   60  A    between atoms: _142  and  _143
REMARK   61  A    between atoms: _146  and  _148
REMARK   62  A    between atoms: _148  and  _149
REMARK   63  A    between atoms: _148  and  _151
REMARK   64  A    between atoms: _151  and  _152
REMARK   65  A    between atoms: _154  and  _156
REMARK   66  A    between atoms: _156  and  _157
REMARK   67  A    between atoms: _159  and  _161
REMARK   68  A    between atoms: _161  and  _162
REMARK   69  A    between atoms: _164  and  _166
REMARK   70  A    between atoms: _166  and  _167
REMARK   71  A    between atoms: _166  and  _169
REMARK   72  A    between atoms: _169  and  _170
REMARK   73  A    between atoms: _173  and  _175
REMARK   74  A    between atoms: _175  and  _176
REMARK   75  A    between atoms: _175  and  _178
REMARK   76  A    between atoms: _181  and  _183
REMARK   77  A    between atoms: _183  and  _184
REMARK   78  A    between atoms: _183  and  _186
REMARK   79  A    between atoms: _186  and  _187
REMARK   80  A    between atoms: _189  and  _191
REMARK   81  A    between atoms: _191  and  _192
REMARK   82  A    between atoms: _191  and  _194
REMARK   83  A    between atoms: _194  and  _195
REMARK   84  A    between atoms: _205  and  _207
REMARK   85  A    between atoms: _207  and  _208
REMARK   86  A    between atoms: _210  and  _212
REMARK   87  A    between atoms: _212  and  _213
REMARK   88  A    between atoms: _212  and  _215
REMARK   89  A    between atoms: _215  and  _216
REMARK   90  A    between atoms: _221  and  _222
REMARK   91  A    between atoms: _224  and  _226
REMARK   92  A    between atoms: _226  and  _227
REMARK   93  A    between atoms: _229  and  _231
REMARK   94  A    between atoms: _231  and  _232
REMARK   95  A    between atoms: _231  and  _234
REMARK   96  A    between atoms: _234  and  _235
REMARK   97  A    between atoms: _236  and  _238
REMARK   98  A    between atoms: _238  and  _239
REMARK   99  A    between atoms: _242  and  _244
REMARK  100  A    between atoms: _244  and  _245
REMARK  101  A    between atoms: _244  and  _247
REMARK  102  A    between atoms: _247  and  _248
REMARK  103  A    between atoms: _251  and  _253
REMARK  104  A    between atoms: _253  and  _254
REMARK  105  A    between atoms: _253  and  _256
REMARK  106  A    between atoms: _256  and  _257
REMARK  107  A    between atoms: _263  and  _264
REMARK  108  A    between atoms: _269  and  _271
REMARK  109  A    between atoms: _271  and  _272
REMARK  110  A    between atoms: _274  and  _276
REMARK  111  A    between atoms: _276  and  _277
REMARK  112  A    between atoms: _276  and  _279
REMARK  113  A    between atoms: _282  and  _284
REMARK  114  A    between atoms: _284  and  _285
REMARK  115  A    between atoms: _284  and  _287
REMARK  116  A    between atoms: _287  and  _288
REMARK  117  A    between atoms: _293  and  _294
REMARK                            x       y       z     vdW  Elec       q    Type
REMARK                         _______ _______ _______ _____ _____    ______ ____
ROOT
ATOM      1  CA  SER A   8       4.091  53.749  56.613  0.00  0.00    +0.160 C 
ENDROOT
BRANCH   1   2
ATOM      2  C   SER A   8       3.347  54.961  56.095  0.00  0.00    +0.242 C 
ATOM      3  O   SER A   8       2.412  55.448  56.736  0.00  0.00    -0.273 OA
ATOM      4  N   GLY A   9       3.797  55.459  54.947  0.00  0.00    -0.297 N 
ATOM      5  H   GLY A   9       4.633  55.021  54.511  0.00  0.00    +0.150 HD
BRANCH   4   6
ATOM      6  CA  GLY A   9       3.174  56.590  54.271  0.00  0.00    +0.149 C 
ATOM      7  CB  GLY A   9       1.713  56.255  53.940  0.00  0.00    +0.031 C 
BRANCH   6   8
ATOM      8  C   GLY A   9       3.264  57.892  55.054  0.00  0.00    +0.241 C 
ATOM      9  N   GLY A  10       4.247  57.999  55.935  0.00  0.00    -0.298 N 
ATOM     10  H   GLY A  10       4.906  57.207  56.075  0.00  0.00    +0.150 HD
ATOM     11  O   GLY A   9       2.448  58.792  54.867  0.00  0.00    -0.273 OA
BRANCH   9  12
ATOM     12  CA  GLY A  10       4.408  59.223  56.708  0.00  0.00    +0.137 C 
BRANCH  12  13
ATOM     13  C   GLY A  10       5.199  60.261  55.923  0.00  0.00    +0.227 C 
ATOM     14  O   GLY A  10       6.114  59.921  55.165  0.00  0.00    -0.286 OA
ENDBRANCH  12  13
BRANCH  12  15
ATOM     15  CB  GLY A  10       5.148  58.946  58.027  0.00  0.00    +0.028 C 
BRANCH  15  16
ATOM     16  CG  GLY A  10       4.444  58.045  59.044  0.00  0.00    +0.002 C 
ATOM     17  CD2 GLY A  10       5.343  57.904  60.260  0.00  0.00    +0.000 C 
ATOM     18  CD1 GLY A  10       3.077  58.611  59.418  0.00  0.00    +0.000 C 
ENDBRANCH  15  16
ENDBRANCH  12  15
ENDBRANCH   9  12
ENDBRANCH   6   8
ENDBRANCH   4   6
ENDBRANCH   1   2
BRANCH   1  19
ATOM     19  N   SER A   8       4.557  54.037  57.962  0.00  0.00    -0.296 N 
ATOM     20  H   SER A   8       3.991  54.665  58.568  0.00  0.00    +0.150 HD
ATOM     21  C   ASP A   7       5.682  53.522  58.441  0.00  0.00    +0.243 C 
ATOM     22  O   ASP A   7       6.372  52.724  57.802  0.00  0.00    -0.273 OA
BRANCH  21  23
ATOM     23  CA  ASP A   7       6.080  53.930  59.849  0.00  0.00    +0.176 C 
BRANCH  23  24
ATOM     24  N   ASP A   7       7.520  53.798  59.952  0.00  0.00    -0.295 N 
ATOM     25  H   ASP A   7       7.925  53.074  60.579  0.00  0.00    +0.150 HD
ATOM     26  C   GLY A   6       8.329  54.590  59.256  0.00  0.00    +0.241 C 
ATOM     27  O   GLY A   6       7.926  55.468  58.484  0.00  0.00    -0.273 OA
BRANCH  26  28
ATOM     28  CA  GLY A   6       9.814  54.320  59.404  0.00  0.00    +0.153 C 
BRANCH  28  29
ATOM     29  N   GLY A   6      10.182  53.798  58.095  0.00  0.00    -0.297 N 
ATOM     30  C   GLN A   5      10.404  52.506  57.906  0.00  0.00    +0.243 C 
ATOM     31  O   GLN A   5      10.422  51.696  58.829  0.00  0.00    -0.273 OA
ATOM     32  H   GLY A   6      10.272  54.453  57.292  0.00  0.00    +0.150 HD
BRANCH  30  33
ATOM     33  CA  GLN A   5      10.728  52.058  56.494  0.00  0.00    +0.176 C 
BRANCH  33  34
ATOM     34  N   GLN A   5      11.055  50.643  56.483  0.00  0.00    -0.295 N 
ATOM     35  H   GLN A   5      11.058  50.114  57.378  0.00  0.00    +0.150 HD
ATOM     36  C   TRP A   4      11.351  50.010  55.352  0.00  0.00    +0.241 C 
ATOM     37  O   TRP A   4      11.289  50.544  54.237  0.00  0.00    -0.273 OA
BRANCH  36  38
ATOM     38  CA  TRP A   4      11.709  48.536  55.502  0.00  0.00    +0.153 C 
BRANCH  38  39
ATOM     39  N   TRP A   4      12.059  47.903  54.236  0.00  0.00    -0.297 N 
ATOM     40  C   SER A   3      12.049  46.580  54.112  0.00  0.00    +0.243 C 
ATOM     41  O   SER A   3      11.719  45.834  55.028  0.00  0.00    -0.273 OA
ATOM     42  H   TRP A   4      12.319  48.494  53.421  0.00  0.00    +0.150 HD
BRANCH  40  43
ATOM     43  CA  SER A   3      12.460  45.999  52.761  0.00  0.00    +0.178 C 
BRANCH  43  44
ATOM     44  N   SER A   3      11.632  46.388  51.626  0.00  0.00    -0.295 N 
ATOM     45  H   SER A   3      11.522  47.396  51.394  0.00  0.00    +0.150 HD
ATOM     46  C   VAL A   2      11.014  45.473  50.882  0.00  0.00    +0.241 C 
ATOM     47  O   VAL A   2      11.018  44.271  51.157  0.00  0.00    -0.273 OA
BRANCH  46  48
ATOM     48  CA  VAL A   2      10.224  45.978  49.669  0.00  0.00    +0.148 C 
BRANCH  48  49
ATOM     49  N   VAL A   2      10.748  45.308  48.472  0.00  0.00    -0.297 N 
ATOM     50  C   ILE A   1      12.039  45.363  48.143  0.00  0.00    +0.238 C 
ATOM     51  O   ILE A   1      12.861  46.026  48.784  0.00  0.00    -0.274 OA
ATOM     52  H   VAL A   2      10.094  44.776  47.864  0.00  0.00    +0.150 HD
BRANCH  50  53
ATOM     53  CA  ILE A   1      12.477  44.623  46.868  0.00  0.00    +0.145 C 
BRANCH  53  54
ATOM     54  N   ILE A   1      13.211  45.600  46.066  0.00  0.00    -0.238 NA
ATOM     55  H   ILE A   1      13.973  46.135  46.530  0.00  0.00    +0.142 HD
ENDBRANCH  53  54
BRANCH  53  56
ATOM     56  CB  ILE A   1      13.377  43.407  47.251  0.00  0.00    +0.025 C 
ATOM     57  CG2 ILE A   1      12.647  42.480  48.222  0.00  0.00    +0.002 C 
BRANCH  56  58
ATOM     58  CG1 ILE A   1      13.787  42.633  46.000  0.00  0.00    +0.002 C 
ATOM     59  CD1 ILE A   1      14.890  41.626  46.243  0.00  0.00    +0.000 C 
ENDBRANCH  56  58
ENDBRANCH  53  56
ENDBRANCH  50  53
ENDBRANCH  48  49
BRANCH  48  60
ATOM     60  CB  VAL A   2       8.726  45.668  49.884  0.00  0.00    +0.027 C 
ATOM     61  CG2 VAL A   2       8.205  46.427  51.102  0.00  0.00    +0.002 C 
ATOM     62  CG1 VAL A   2       7.915  46.035  48.638  0.00  0.00    +0.002 C 
ENDBRANCH  48  60
ENDBRANCH  46  48
ENDBRANCH  43  44
BRANCH  43  63
ATOM     63  CB  SER A   3      13.928  46.324  52.444  0.00  0.00    +0.166 C 
BRANCH  63  64
ATOM     64  OG  SER A   3      14.811  45.881  53.466  0.00  0.00    -0.380 OA
ATOM     65  H   SER A   3      14.729  44.900  53.569  0.00  0.00    +0.211 HD
ENDBRANCH  63  64
ENDBRANCH  43  63
ENDBRANCH  40  43
ENDBRANCH  38  39
BRANCH  38  66
ATOM     66  CB  TRP A   4      12.863  48.385  56.508  0.00  0.00    +0.057 C 
BRANCH  66  67
ATOM     67  CG  TRP A   4      14.163  49.047  56.099  0.00  0.00    -0.002 A 
ATOM     68  CD2 TRP A   4      14.669  50.319  56.562  0.00  0.00    +0.013 A 
ATOM     69  CE3 TRP A   4      14.177  51.312  57.419  0.00  0.00    +0.001 A 
ATOM     70  CZ3 TRP A   4      14.956  52.442  57.652  0.00  0.00    +0.000 A 
ATOM     71  CH2 TRP A   4      16.215  52.595  57.035  0.00  0.00    +0.001 A 
ATOM     72  CZ2 TRP A   4      16.719  51.641  56.189  0.00  0.00    +0.017 A 
ATOM     73  CE2 TRP A   4      15.931  50.503  55.958  0.00  0.00    +0.056 A 
ATOM     74  NE1 TRP A   4      16.175  49.403  55.170  0.00  0.00    -0.352 N 
ATOM     75  HE1 TRP A   4      17.028  49.249  54.595  0.00  0.00    +0.166 HD
ATOM     76  CD1 TRP A   4      15.114  48.542  55.265  0.00  0.00    +0.068 A 
ENDBRANCH  66  67
ENDBRANCH  38  66
ENDBRANCH  36  38
ENDBRANCH  33  34
ENDBRANCH  30  33
ENDBRANCH  28  29
BRANCH  28  77
ATOM     77  CB  GLY A   6      10.563  55.611  59.705  0.00  0.00    +0.055 C 
BRANCH  77  78
ATOM     78  CG  GLY A   6      10.030  56.351  60.914  0.00  0.00    -0.020 A 
ATOM     79  CD2 GLY A   6      10.406  55.981  62.204  0.00  0.00    -0.001 A 
ATOM     80  CE2 GLY A   6       9.925  56.669  63.315  0.00  0.00    +0.036 A 
ATOM     81  CZ  GLY A   6       9.056  57.736  63.128  0.00  0.00    +0.134 A 
ATOM     82  CE1 GLY A   6       8.674  58.110  61.854  0.00  0.00    +0.036 A 
ATOM     83  CD1 GLY A   6       9.156  57.422  60.763  0.00  0.00    -0.001 A 
BRANCH  81  84
ATOM     84  OH  GLY A   6       8.571  58.440  64.207  0.00  0.00    -0.506 OA
ATOM     85  HH  GLY A   6       8.934  58.053  65.043  0.00  0.00    +0.292 HD
ENDBRANCH  81  84
ENDBRANCH  77  78
ENDBRANCH  28  77
ENDBRANCH  26  28
ENDBRANCH  23  24
ENDBRANCH  21  23
ENDBRANCH   1  19
BRANCH   1  86
ATOM     86  CB  SER A   8       3.139  52.553  56.578  0.00  0.00    +0.098 C 
BRANCH  86  87
ATOM     87  SG  SER A   8       3.876  50.965  57.046  0.00  0.00    -0.080 S 
BRANCH  87  88
ATOM     88  SG  TRP A   4       2.374  49.654  56.663  0.00  0.00    -0.080 S 
BRANCH  88  89
ATOM     89  CB  TRP A   4       2.550  49.276  54.881  0.00  0.00    +0.098 C 
BRANCH  89  90
ATOM     90  CA  TRP A   4       3.920  48.731  54.440  0.00  0.00    +0.160 C 
BRANCH  90  91
ATOM     91  C   TRP A   4       4.094  47.263  54.819  0.00  0.00    +0.242 C 
ATOM     92  N   GLN A   5       3.957  46.942  56.104  0.00  0.00    -0.297 N 
ATOM     93  H   GLN A   5       3.723  47.686  56.792  0.00  0.00    +0.150 HD
ATOM     94  O   TRP A   4       4.350  46.425  53.945  0.00  0.00    -0.273 OA
BRANCH  92  95
ATOM     95  CA  GLN A   5       4.129  45.565  56.569  0.00  0.00    +0.149 C 
BRANCH  95  96
ATOM     96  C   GLN A   5       3.271  44.603  55.755  0.00  0.00    +0.241 C 
ATOM     97  O   GLN A   5       2.118  44.905  55.452  0.00  0.00    -0.273 OA
ATOM     98  N   GLY A   6       3.846  43.468  55.372  0.00  0.00    -0.295 N 
ATOM     99  H   GLY A   6       4.828  43.265  55.649  0.00  0.00    +0.150 HD
BRANCH  98 100
ATOM    100  CA  GLY A   6       3.106  42.509  54.567  0.00  0.00    +0.176 C 
BRANCH 100 101
ATOM    101  C   GLY A   6       3.480  42.623  53.098  0.00  0.00    +0.243 C 
ATOM    102  N   ASP A   7       3.991  43.787  52.697  0.00  0.00    -0.296 N 
ATOM    103  H   ASP A   7       4.079  44.563  53.384  0.00  0.00    +0.150 HD
ATOM    104  O   GLY A   6       3.240  41.693  52.315  0.00  0.00    -0.273 OA
BRANCH 102 105
ATOM    105  CA  ASP A   7       4.431  44.006  51.323  0.00  0.00    +0.160 C 
BRANCH 105 106
ATOM    106  C   ASP A   7       5.884  43.562  51.199  0.00  0.00    +0.241 C 
ATOM    107  N   SER A   8       6.560  43.443  52.342  0.00  0.00    -0.295 N 
ATOM    108  H   SER A   8       6.066  43.643  53.235  0.00  0.00    +0.150 HD
ATOM    109  O   ASP A   7       6.392  43.397  50.085  0.00  0.00    -0.273 OA
BRANCH 107 110
ATOM    110  CA  SER A   8       7.968  43.043  52.393  0.00  0.00    +0.178 C 
BRANCH 110 111
ATOM    111  C   SER A   8       8.306  41.876  51.478  0.00  0.00    +0.243 C 
ATOM    112  O   SER A   8       7.551  40.908  51.393  0.00  0.00    -0.273 OA
ATOM    113  N   GLY A   9       9.434  41.990  50.786  0.00  0.00    -0.295 N 
ATOM    114  H   GLY A   9      10.018  42.843  50.901  0.00  0.00    +0.150 HD
BRANCH 113 115
ATOM    115  CA  GLY A   9       9.870  40.948  49.872  0.00  0.00    +0.176 C 
BRANCH 115 116
ATOM    116  C   GLY A   9       9.301  41.101  48.470  0.00  0.00    +0.243 C 
ATOM    117  N   GLY A  10       8.263  41.934  48.341  0.00  0.00    -0.296 N 
ATOM    118  H   GLY A  10       7.913  42.427  49.187  0.00  0.00    +0.150 HD
ATOM    119  O   GLY A   9       9.792  40.474  47.533  0.00  0.00    -0.273 OA
BRANCH 117 120
ATOM    120  CA  GLY A  10       7.602  42.181  47.070  0.00  0.00    +0.163 C 
BRANCH 120 121
ATOM    121  C   GLY A  10       8.391  43.036  46.097  0.00  0.00    +0.229 C 
ATOM    122  O   GLY A  10       9.387  43.655  46.478  0.00  0.00    -0.286 OA
ENDBRANCH 120 121
ENDBRANCH 117 120
ENDBRANCH 115 116
ENDBRANCH 113 115
ENDBRANCH 110 111
BRANCH 110 123
ATOM    123  CB  SER A   8       8.374  42.713  53.827  0.00  0.00    +0.166 C 
BRANCH 123 124
ATOM    124  OG  SER A   8       8.421  43.897  54.603  0.00  0.00    -0.380 OA
ATOM    125  H   SER A   8       8.685  43.672  55.530  0.00  0.00    +0.211 HD
ENDBRANCH 123 124
ENDBRANCH 110 123
ENDBRANCH 107 110
ENDBRANCH 105 106
BRANCH 105 126
ATOM    126  CB  ASP A   7       4.372  45.487  50.936  0.00  0.00    +0.143 C 
BRANCH 126 127
ATOM    127  CG  ASP A   7       2.969  45.997  50.745  0.00  0.00    +0.367 C 
ATOM    128  OD2 ASP A   7       2.697  47.140  51.164  0.00  0.00    -0.246 OA
ATOM    129  OD1 ASP A   7       2.149  45.274  50.150  0.00  0.00    -0.246 OA
ENDBRANCH 126 127
ENDBRANCH 105 126
ENDBRANCH 102 105
ENDBRANCH 100 101
ENDBRANCH  98 100
ENDBRANCH  95  96
BRANCH  95 130
ATOM    130  CB  GLN A   5       3.807  45.446  58.065  0.00  0.00    +0.039 C 
BRANCH 130 131
ATOM    131  CG  GLN A   5       4.940  45.925  58.999  0.00  0.00    +0.087 C 
BRANCH 131 132
ATOM    132  CD  GLN A   5       5.034  47.444  59.161  0.00  0.00    +0.219 C 
ATOM    133  NE2 GLN A   5       6.122  47.900  59.758  0.00  0.00    -0.329 N 
ATOM    134 HE21 GLN A   5       6.870  47.240  60.051  0.00  0.00    +0.145 HD
ATOM    135 HE22 GLN A   5       6.230  48.919  59.935  0.00  0.00    +0.145 HD
ATOM    136  OE1 GLN A   5       4.124  48.188  58.798  0.00  0.00    -0.275 OA
ENDBRANCH 131 132
ENDBRANCH 130 131
ENDBRANCH  95 130
ENDBRANCH  92  95
ENDBRANCH  90  91
BRANCH  90 139
ATOM    137  C   SER A   3       4.375  50.041  52.466  0.00  0.00    +0.241 C 
ATOM    138  O   SER A   3       4.600  51.038  53.167  0.00  0.00    -0.273 OA
ATOM    139  N   TRP A   4       4.062  48.869  52.998  0.00  0.00    -0.296 N 
ATOM    140  H   TRP A   4       3.917  48.043  52.382  0.00  0.00    +0.150 HD
BRANCH 137 141
ATOM    141  CA  SER A   3       4.492  50.122  50.934  0.00  0.00    +0.149 C 
ATOM    142  CB  SER A   3       5.690  49.334  50.446  0.00  0.00    +0.031 C 
BRANCH 141 144
ATOM    143  C   VAL A   2       3.625  52.369  50.603  0.00  0.00    +0.241 C 
ATOM    144  N   SER A   3       4.671  51.550  50.688  0.00  0.00    -0.297 N 
ATOM    145  H   SER A   3       5.631  51.934  50.577  0.00  0.00    +0.150 HD
ATOM    146  O   VAL A   2       2.461  51.958  50.563  0.00  0.00    -0.273 OA
BRANCH 143 147
ATOM    147  CA  VAL A   2       3.929  53.861  50.456  0.00  0.00    +0.160 C 
BRANCH 147 149
ATOM    148  C   ILE A   1       2.748  55.871  49.741  0.00  0.00    +0.238 C 
ATOM    149  N   VAL A   2       2.707  54.582  50.077  0.00  0.00    -0.297 N 
ATOM    150  H   VAL A   2       1.797  54.079  50.071  0.00  0.00    +0.150 HD
ATOM    151  O   ILE A   1       3.809  56.493  49.623  0.00  0.00    -0.274 OA
BRANCH 148 152
ATOM    152  CA  ILE A   1       1.416  56.561  49.443  0.00  0.00    +0.145 C 
BRANCH 152 153
ATOM    153  N   ILE A   1       1.302  57.754  50.288  0.00  0.00    -0.238 NA
ATOM    154  H   ILE A   1       2.089  58.433  50.298  0.00  0.00    +0.142 HD
ENDBRANCH 152 153
BRANCH 152 155
ATOM    155  CB  ILE A   1       1.324  56.967  47.967  0.00  0.00    +0.026 C 
BRANCH 155 156
ATOM    156  CG  ILE A   1      -0.028  57.588  47.611  0.00  0.00    -0.000 C 
BRANCH 156 157
ATOM    157  CD  ILE A   1      -0.117  58.011  46.152  0.00  0.00    -0.024 C 
BRANCH 157 158
ATOM    158  CE  ILE A   1       0.809  59.186  45.874  0.00  0.00    -0.086 C 
BRANCH 158 159
ATOM    159  NZ  ILE A   1       0.690  59.684  44.471  0.00  0.00    +0.380 N 
ATOM    160  HZ1 ILE A   1       1.340  60.484  44.332  0.00  0.00    -0.089 HD
ATOM    161  HZ2 ILE A   1      -0.287  59.995  44.297  0.00  0.00    -0.089 HD
ATOM    162  HZ3 ILE A   1       0.934  58.918  43.811  0.00  0.00    -0.089 HD
ENDBRANCH 158 159
ENDBRANCH 157 158
ENDBRANCH 156 157
ENDBRANCH 155 156
ENDBRANCH 152 155
ENDBRANCH 148 152
ENDBRANCH 147 149
BRANCH 147 163
ATOM    163  CB  VAL A   2       4.357  54.429  51.830  0.00  0.00    +0.143 C 
BRANCH 163 164
ATOM    164  CG  VAL A   2       5.760  54.003  52.291  0.00  0.00    +0.367 C 
ATOM    165  OD2 VAL A   2       6.069  54.302  53.469  0.00  0.00    -0.246 OA
ATOM    166  OD1 VAL A   2       6.560  53.415  51.524  0.00  0.00    -0.246 OA
ENDBRANCH 163 164
ENDBRANCH 147 163
ENDBRANCH 143 147
ENDBRANCH 141 144
ENDBRANCH 137 141
ENDBRANCH  90 139
ENDBRANCH  89  90
ENDBRANCH  88  89
ENDBRANCH  87  88
ENDBRANCH  86  87
ENDBRANCH   1  86
TORSDOF 71
REMARK  Name = ../refined-set-2016/1j16/1j16_pocket.pdb
REMARK  117 active torsions:
REMARK  status: ('A' for Active; 'I' for Inactive)
REMARK    1  A    between atoms: _1  and  _5
REMARK    2  A    between atoms: _5  and  _6
REMARK    3  A    between atoms: _5  and  _8
REMARK    4  A    between atoms: _8  and  _9
REMARK    5  A    between atoms: _12  and  _14
REMARK    6  A    between atoms: _14  and  _15
REMARK    7  A    between atoms: _14  and  _17
REMARK    8  A    between atoms: _20  and  _22
REMARK    9  A    between atoms: _22  and  _23
REMARK   10  A    between atoms: _22  and  _25
REMARK   11  A    between atoms: _25  and  _26
REMARK   12  A    between atoms: _31  and  _33
REMARK   13  A    between atoms: _33  and  _34
REMARK   14  A    between atoms: _33  and  _36
REMARK   15  A    between atoms: _36  and  _37
REMARK   16  A    between atoms: _42  and  _43
REMARK   17  A    between atoms: _45  and  _47
REMARK   18  A    between atoms: _47  and  _48
REMARK   19  A    between atoms: _47  and  _50
REMARK   20  A    between atoms: _50  and  _51
REMARK   21  A    between atoms: _54  and  _56
REMARK   22  A    between atoms: _56  and  _57
REMARK   23  A    between atoms: _56  and  _59
REMARK   24  A    between atoms: _59  and  _60
REMARK   25  A    between atoms: _65  and  _67
REMARK   26  A    between atoms: _67  and  _68
REMARK   27  A    between atoms: _67  and  _70
REMARK   28  A    between atoms: _70  and  _71
REMARK   29  A    between atoms: _77  and  _79
REMARK   30  A    between atoms: _79  and  _80
REMARK   31  A    between atoms: _79  and  _82
REMARK   32  A    between atoms: _85  and  _87
REMARK   33  A    between atoms: _87  and  _88
REMARK   34  A    between atoms: _87  and  _90
REMARK   35  A    between atoms: _90  and  _91
REMARK   36  A    between atoms: _91  and  _92
REMARK   37  A    between atoms: _92  and  _93
REMARK   38  A    between atoms: _93  and  _94
REMARK   39  A    between atoms: _98  and  _100
REMARK   40  A    between atoms: _100  and  _101
REMARK   41  A    between atoms: _100  and  _103
REMARK   42  A    between atoms: _103  and  _104
REMARK   43  A    between atoms: _107  and  _109
REMARK   44  A    between atoms: _109  and  _110
REMARK   45  A    between atoms: _113  and  _115
REMARK   46  A    between atoms: _115  and  _116
REMARK   47  A    between atoms: _115  and  _118
REMARK   48  A    between atoms: _118  and  _119
REMARK   49  A    between atoms: _119  and  _235
REMARK   50  A    between atoms: _120  and  _122
REMARK   51  A    between atoms: _122  and  _123
REMARK   52  A    between atoms: _122  and  _125
REMARK   53  A    between atoms: _125  and  _126
REMARK   54  A    between atoms: _126  and  _127
REMARK   55  A    between atoms: _132  and  _134
REMARK   56  A    between atoms: _134  and  _135
REMARK   57  A    between atoms: _137  and  _139
REMARK   58  A    between atoms: _139  and  _140
REMARK   59  A    between atoms: _139  and  _142
REMARK   60  A    between atoms: _142  and  _143
REMARK   61  A    between atoms: _146  and  _148
REMARK   62  A    between atoms: _148  and  _149
REMARK   63  A    between atoms: _148  and  _151
REMARK   64  A    between atoms: _151  and  _152
REMARK   65  A    between atoms: _154  and  _156
REMARK   66  A    between atoms: _156  and  _157
REMARK   67  A    between atoms: _159  and  _161
REMARK   68  A    between atoms: _161  and  _162
REMARK   69  A    between atoms: _164  and  _166
REMARK   70  A    between atoms: _166  and  _167
REMARK   71  A    between atoms: _166  and  _169
REMARK   72  A    between atoms: _169  and  _170
REMARK   73  A    between atoms: _173  and  _175
REMARK   74  A    between atoms: _175  and  _176
REMARK   75  A    between atoms: _175  and  _178
REMARK   76  A    between atoms: _181  and  _183
REMARK   77  A    between atoms: _183  and  _184
REMARK   78  A    between atoms: _183  and  _186
REMARK   79  A    between atoms: _186  and  _187
REMARK   80  A    between atoms: _189  and  _191
REMARK   81  A    between atoms: _191  and  _192
REMARK   82  A    between atoms: _191  and  _194
REMARK   83  A    between atoms: _194  and  _195
REMARK   84  A    between atoms: _205  and  _207
REMARK   85  A    between atoms: _207  and  _208
REMARK   86  A    between atoms: _210  and  _212
REMARK   87  A    between atoms: _212  and  _213
REMARK   88  A    between atoms: _212  and  _215
REMARK   89  A    between atoms: _215  and  _216
REMARK   90  A    between atoms: _221  and  _222
REMARK   91  A    between atoms: _224  and  _226
REMARK   92  A    between atoms: _226  and  _227
REMARK   93  A    between atoms: _229  and  _231
REMARK   94  A    between atoms: _231  and  _232
REMARK   95  A    between atoms: _231  and  _234
REMARK   96  A    between atoms: _234  and  _235
REMARK   97  A    between atoms: _236  and  _238
REMARK   98  A    between atoms: _238  and  _239
REMARK   99  A    between atoms: _242  and  _244
REMARK  100  A    between atoms: _244  and  _245
REMARK  101  A    between atoms: _244  and  _247
REMARK  102  A    between atoms: _247  and  _248
REMARK  103  A    between atoms: _251  and  _253
REMARK  104  A    between atoms: _253  and  _254
REMARK  105  A    between atoms: _253  and  _256
REMARK  106  A    between atoms: _256  and  _257
REMARK  107  A    between atoms: _263  and  _264
REMARK  108  A    between atoms: _269  and  _271
REMARK  109  A    between atoms: _271  and  _272
REMARK  110  A    between atoms: _274  and  _276
REMARK  111  A    between atoms: _276  and  _277
REMARK  112  A    between atoms: _276  and  _279
REMARK  113  A    between atoms: _282  and  _284
REMARK  114  A    between atoms: _284  and  _285
REMARK  115  A    between atoms: _284  and  _287
REMARK  116  A    between atoms: _287  and  _288
REMARK  117  A    between atoms: _293  and  _294
REMARK                            x       y       z     vdW  Elec       q    Type
REMARK                         _______ _______ _______ _____ _____    ______ ____
ROOT
ATOM      1  C   GLY A   3      11.376  53.159  51.461  0.00  0.00    +0.243 C 
ATOM      2  N   VAL A   4      12.008  52.180  52.107  0.00  0.00    -0.297 N 
ATOM      3  H   VAL A   4      11.517  51.693  52.884  0.00  0.00    +0.150 HD
ATOM      4  O   GLY A   3      11.883  53.786  50.525  0.00  0.00    -0.273 OA
ENDROOT
BRANCH   1   5
ATOM      5  CA  GLY A   3       9.963  53.480  51.916  0.00  0.00    +0.176 C 
BRANCH   5   8
ATOM      6  C   PRO A   2      10.179  55.840  52.336  0.00  0.00    +0.241 C 
ATOM      7  O   PRO A   2      10.991  55.623  53.238  0.00  0.00    -0.273 OA
ATOM      8  N   GLY A   3       9.618  54.864  51.630  0.00  0.00    -0.295 N 
ATOM      9  H   GLY A   3       8.936  55.088  50.877  0.00  0.00    +0.150 HD
BRANCH   6  16
ATOM     10  C   ASN A   1       9.405  58.070  54.292  0.00  0.00    +0.242 C 
ATOM     11  O   ASN A   1       8.542  57.210  54.487  0.00  0.00    -0.273 OA
ATOM     12  N   PRO A   2      10.039  58.177  53.113  0.00  0.00    -0.272 N 
ATOM     13  CD  PRO A   2      11.089  59.151  52.766  0.00  0.00    +0.094 C 
ATOM     14  CG  PRO A   2      10.939  59.242  51.280  0.00  0.00    +0.024 C 
ATOM     15  CB  PRO A   2      10.698  57.823  50.885  0.00  0.00    +0.031 C 
ATOM     16  CA  PRO A   2       9.776  57.277  51.982  0.00  0.00    +0.152 C 
BRANCH  10  17
ATOM     17  CA  ASN A   1       9.784  59.073  55.390  0.00  0.00    +0.154 C 
BRANCH  17  18
ATOM     18  N   ASN A   1       9.246  60.406  55.151  0.00  0.00    -0.238 NA
ATOM     19  H   ASN A   1       8.240  60.516  54.909  0.00  0.00    +0.142 HD
ENDBRANCH  17  18
BRANCH  17  20
ATOM     20  CB  ASN A   1       9.354  58.559  56.776  0.00  0.00    +0.111 C 
BRANCH  20  21
ATOM     21  CG  ASN A   1      10.045  59.295  57.912  0.00  0.00    +0.221 C 
ATOM     22  ND2 ASN A   1       9.425  60.370  58.383  0.00  0.00    -0.329 N 
ATOM     23 HD21 ASN A   1       9.866  60.937  59.135  0.00  0.00    +0.145 HD
ATOM     24 HD22 ASN A   1       8.498  60.646  58.000  0.00  0.00    +0.145 HD
ATOM     25  OD1 ASN A   1      11.148  58.924  58.333  0.00  0.00    -0.275 OA
ENDBRANCH  20  21
ENDBRANCH  17  20
ENDBRANCH  10  17
ENDBRANCH   6  16
ENDBRANCH   5   8
ENDBRANCH   1   5
BRANCH   2  26
ATOM     26  CA  VAL A   4      13.365  51.767  51.763  0.00  0.00    +0.149 C 
BRANCH  26  27
ATOM     27  C   VAL A   4      13.312  50.373  51.137  0.00  0.00    +0.241 C 
ATOM     28  O   VAL A   4      12.637  49.470  51.642  0.00  0.00    -0.273 OA
ATOM     29  N   TYR A   5      14.023  50.216  50.026  0.00  0.00    -0.298 N 
ATOM     30  H   TYR A   5      14.611  51.007  49.695  0.00  0.00    +0.150 HD
BRANCH  29  31
ATOM     31  CA  TYR A   5      14.013  48.982  49.252  0.00  0.00    +0.141 C 
BRANCH  31  32
ATOM     32  C   TYR A   5      15.412  48.461  48.956  0.00  0.00    +0.227 C 
ATOM     33  O   TYR A   5      16.356  49.238  48.853  0.00  0.00    -0.286 OA
ENDBRANCH  31  32
BRANCH  31  34
ATOM     34  CB  TYR A   5      13.299  49.259  47.922  0.00  0.00    +0.054 C 
BRANCH  34  35
ATOM     35  CG  TYR A   5      11.886  49.751  48.096  0.00  0.00    -0.020 A 
ATOM     36  CD2 TYR A   5      11.619  51.063  48.502  0.00  0.00    -0.001 A 
ATOM     37  CE2 TYR A   5      10.310  51.490  48.727  0.00  0.00    +0.036 A 
ATOM     38  CZ  TYR A   5       9.266  50.602  48.534  0.00  0.00    +0.134 A 
ATOM     39  CE1 TYR A   5       9.514  49.308  48.122  0.00  0.00    +0.036 A 
ATOM     40  CD1 TYR A   5      10.816  48.892  47.907  0.00  0.00    -0.001 A 
BRANCH  38  41
ATOM     41  OH  TYR A   5       7.973  50.978  48.783  0.00  0.00    -0.506 OA
ATOM     42  HH  TYR A   5       7.737  51.746  48.204  0.00  0.00    +0.292 HD
ENDBRANCH  38  41
ENDBRANCH  34  35
ENDBRANCH  31  34
ENDBRANCH  29  31
ENDBRANCH  26  27
BRANCH  26  43
ATOM     43  CB  VAL A   4      14.292  51.798  52.984  0.00  0.00    +0.027 C 
ATOM     44  CG2 VAL A   4      14.189  53.152  53.685  0.00  0.00    +0.002 C 
ATOM     45  CG1 VAL A   4      15.737  51.532  52.547  0.00  0.00    +0.002 C 
ENDBRANCH  26  43
ENDBRANCH   2  26
TORSDOF 15
REMARK  Name = ../refined-set-2016/1j16/1j16_pocket.pdb
REMARK  117 active torsions:
REMARK  status: ('A' for Active; 'I' for Inactive)
REMARK    1  A    between atoms: _1  and  _5
REMARK    2  A    between atoms: _5  and  _6
REMARK    3  A    between atoms: _5  and  _8
REMARK    4  A    between atoms: _8  and  _9
REMARK    5  A    between atoms: _12  and  _14
REMARK    6  A    between atoms: _14  and  _15
REMARK    7  A    between atoms: _14  and  _17
REMARK    8  A    between atoms: _20  and  _22
REMARK    9  A    between atoms: _22  and  _23
REMARK   10  A    between atoms: _22  and  _25
REMARK   11  A    between atoms: _25  and  _26
REMARK   12  A    between atoms: _31  and  _33
REMARK   13  A    between atoms: _33  and  _34
REMARK   14  A    between atoms: _33  and  _36
REMARK   15  A    between atoms: _36  and  _37
REMARK   16  A    between atoms: _42  and  _43
REMARK   17  A    between atoms: _45  and  _47
REMARK   18  A    between atoms: _47  and  _48
REMARK   19  A    between atoms: _47  and  _50
REMARK   20  A    between atoms: _50  and  _51
REMARK   21  A    between atoms: _54  and  _56
REMARK   22  A    between atoms: _56  and  _57
REMARK   23  A    between atoms: _56  and  _59
REMARK   24  A    between atoms: _59  and  _60
REMARK   25  A    between atoms: _65  and  _67
REMARK   26  A    between atoms: _67  and  _68
REMARK   27  A    between atoms: _67  and  _70
REMARK   28  A    between atoms: _70  and  _71
REMARK   29  A    between atoms: _77  and  _79
REMARK   30  A    between atoms: _79  and  _80
REMARK   31  A    between atoms: _79  and  _82
REMARK   32  A    between atoms: _85  and  _87
REMARK   33  A    between atoms: _87  and  _88
REMARK   34  A    between atoms: _87  and  _90
REMARK   35  A    between atoms: _90  and  _91
REMARK   36  A    between atoms: _91  and  _92
REMARK   37  A    between atoms: _92  and  _93
REMARK   38  A    between atoms: _93  and  _94
REMARK   39  A    between atoms: _98  and  _100
REMARK   40  A    between atoms: _100  and  _101
REMARK   41  A    between atoms: _100  and  _103
REMARK   42  A    between atoms: _103  and  _104
REMARK   43  A    between atoms: _107  and  _109
REMARK   44  A    between atoms: _109  and  _110
REMARK   45  A    between atoms: _113  and  _115
REMARK   46  A    between atoms: _115  and  _116
REMARK   47  A    between atoms: _115  and  _118
REMARK   48  A    between atoms: _118  and  _119
REMARK   49  A    between atoms: _119  and  _235
REMARK   50  A    between atoms: _120  and  _122
REMARK   51  A    between atoms: _122  and  _123
REMARK   52  A    between atoms: _122  and  _125
REMARK   53  A    between atoms: _125  and  _126
REMARK   54  A    between atoms: _126  and  _127
REMARK   55  A    between atoms: _132  and  _134
REMARK   56  A    between atoms: _134  and  _135
REMARK   57  A    between atoms: _137  and  _139
REMARK   58  A    between atoms: _139  and  _140
REMARK   59  A    between atoms: _139  and  _142
REMARK   60  A    between atoms: _142  and  _143
REMARK   61  A    between atoms: _146  and  _148
REMARK   62  A    between atoms: _148  and  _149
REMARK   63  A    between atoms: _148  and  _151
REMARK   64  A    between atoms: _151  and  _152
REMARK   65  A    between atoms: _154  and  _156
REMARK   66  A    between atoms: _156  and  _157
REMARK   67  A    between atoms: _159  and  _161
REMARK   68  A    between atoms: _161  and  _162
REMARK   69  A    between atoms: _164  and  _166
REMARK   70  A    between atoms: _166  and  _167
REMARK   71  A    between atoms: _166  and  _169
REMARK   72  A    between atoms: _169  and  _170
REMARK   73  A    between atoms: _173  and  _175
REMARK   74  A    between atoms: _175  and  _176
REMARK   75  A    between atoms: _175  and  _178
REMARK   76  A    between atoms: _181  and  _183
REMARK   77  A    between atoms: _183  and  _184
REMARK   78  A    between atoms: _183  and  _186
REMARK   79  A    between atoms: _186  and  _187
REMARK   80  A    between atoms: _189  and  _191
REMARK   81  A    between atoms: _191  and  _192
REMARK   82  A    between atoms: _191  and  _194
REMARK   83  A    between atoms: _194  and  _195
REMARK   84  A    between atoms: _205  and  _207
REMARK   85  A    between atoms: _207  and  _208
REMARK   86  A    between atoms: _210  and  _212
REMARK   87  A    between atoms: _212  and  _213
REMARK   88  A    between atoms: _212  and  _215
REMARK   89  A    between atoms: _215  and  _216
REMARK   90  A    between atoms: _221  and  _222
REMARK   91  A    between atoms: _224  and  _226
REMARK   92  A    between atoms: _226  and  _227
REMARK   93  A    between atoms: _229  and  _231
REMARK   94  A    between atoms: _231  and  _232
REMARK   95  A    between atoms: _231  and  _234
REMARK   96  A    between atoms: _234  and  _235
REMARK   97  A    between atoms: _236  and  _238
REMARK   98  A    between atoms: _238  and  _239
REMARK   99  A    between atoms: _242  and  _244
REMARK  100  A    between atoms: _244  and  _245
REMARK  101  A    between atoms: _244  and  _247
REMARK  102  A    between atoms: _247  and  _248
REMARK  103  A    between atoms: _251  and  _253
REMARK  104  A    between atoms: _253  and  _254
REMARK  105  A    between atoms: _253  and  _256
REMARK  106  A    between atoms: _256  and  _257
REMARK  107  A    between atoms: _263  and  _264
REMARK  108  A    between atoms: _269  and  _271
REMARK  109  A    between atoms: _271  and  _272
REMARK  110  A    between atoms: _274  and  _276
REMARK  111  A    between atoms: _276  and  _277
REMARK  112  A    between atoms: _276  and  _279
REMARK  113  A    between atoms: _282  and  _284
REMARK  114  A    between atoms: _284  and  _285
REMARK  115  A    between atoms: _284  and  _287
REMARK  116  A    between atoms: _287  and  _288
REMARK  117  A    between atoms: _293  and  _294
REMARK                            x       y       z     vdW  Elec       q    Type
REMARK                         _______ _______ _______ _____ _____    ______ ____
ROOT
ATOM      1  O   HOH     1       7.360  53.540  48.924  0.00  0.00    +0.000 OA
ENDROOT
TORSDOF 0
REMARK  Name = ../refined-set-2016/1j16/1j16_pocket.pdb
REMARK  117 active torsions:
REMARK  status: ('A' for Active; 'I' for Inactive)
REMARK    1  A    between atoms: _1  and  _5
REMARK    2  A    between atoms: _5  and  _6
REMARK    3  A    between atoms: _5  and  _8
REMARK    4  A    between atoms: _8  and  _9
REMARK    5  A    between atoms: _12  and  _14
REMARK    6  A    between atoms: _14  and  _15
REMARK    7  A    between atoms: _14  and  _17
REMARK    8  A    between atoms: _20  and  _22
REMARK    9  A    between atoms: _22  and  _23
REMARK   10  A    between atoms: _22  and  _25
REMARK   11  A    between atoms: _25  and  _26
REMARK   12  A    between atoms: _31  and  _33
REMARK   13  A    between atoms: _33  and  _34
REMARK   14  A    between atoms: _33  and  _36
REMARK   15  A    between atoms: _36  and  _37
REMARK   16  A    between atoms: _42  and  _43
REMARK   17  A    between atoms: _45  and  _47
REMARK   18  A    between atoms: _47  and  _48
REMARK   19  A    between atoms: _47  and  _50
REMARK   20  A    between atoms: _50  and  _51
REMARK   21  A    between atoms: _54  and  _56
REMARK   22  A    between atoms: _56  and  _57
REMARK   23  A    between atoms: _56  and  _59
REMARK   24  A    between atoms: _59  and  _60
REMARK   25  A    between atoms: _65  and  _67
REMARK   26  A    between atoms: _67  and  _68
REMARK   27  A    between atoms: _67  and  _70
REMARK   28  A    between atoms: _70  and  _71
REMARK   29  A    between atoms: _77  and  _79
REMARK   30  A    between atoms: _79  and  _80
REMARK   31  A    between atoms: _79  and  _82
REMARK   32  A    between atoms: _85  and  _87
REMARK   33  A    between atoms: _87  and  _88
REMARK   34  A    between atoms: _87  and  _90
REMARK   35  A    between atoms: _90  and  _91
REMARK   36  A    between atoms: _91  and  _92
REMARK   37  A    between atoms: _92  and  _93
REMARK   38  A    between atoms: _93  and  _94
REMARK   39  A    between atoms: _98  and  _100
REMARK   40  A    between atoms: _100  and  _101
REMARK   41  A    between atoms: _100  and  _103
REMARK   42  A    between atoms: _103  and  _104
REMARK   43  A    between atoms: _107  and  _109
REMARK   44  A    between atoms: _109  and  _110
REMARK   45  A    between atoms: _113  and  _115
REMARK   46  A    between atoms: _115  and  _116
REMARK   47  A    between atoms: _115  and  _118
REMARK   48  A    between atoms: _118  and  _119
REMARK   49  A    between atoms: _119  and  _235
REMARK   50  A    between atoms: _120  and  _122
REMARK   51  A    between atoms: _122  and  _123
REMARK   52  A    between atoms: _122  and  _125
REMARK   53  A    between atoms: _125  and  _126
REMARK   54  A    between atoms: _126  and  _127
REMARK   55  A    between atoms: _132  and  _134
REMARK   56  A    between atoms: _134  and  _135
REMARK   57  A    between atoms: _137  and  _139
REMARK   58  A    between atoms: _139  and  _140
REMARK   59  A    between atoms: _139  and  _142
REMARK   60  A    between atoms: _142  and  _143
REMARK   61  A    between atoms: _146  and  _148
REMARK   62  A    between atoms: _148  and  _149
REMARK   63  A    between atoms: _148  and  _151
REMARK   64  A    between atoms: _151  and  _152
REMARK   65  A    between atoms: _154  and  _156
REMARK   66  A    between atoms: _156  and  _157
REMARK   67  A    between atoms: _159  and  _161
REMARK   68  A    between atoms: _161  and  _162
REMARK   69  A    between atoms: _164  and  _166
REMARK   70  A    between atoms: _166  and  _167
REMARK   71  A    between atoms: _166  and  _169
REMARK   72  A    between atoms: _169  and  _170
REMARK   73  A    between atoms: _173  and  _175
REMARK   74  A    between atoms: _175  and  _176
REMARK   75  A    between atoms: _175  and  _178
REMARK   76  A    between atoms: _181  and  _183
REMARK   77  A    between atoms: _183  and  _184
REMARK   78  A    between atoms: _183  and  _186
REMARK   79  A    between atoms: _186  and  _187
REMARK   80  A    between atoms: _189  and  _191
REMARK   81  A    between atoms: _191  and  _192
REMARK   82  A    between atoms: _191  and  _194
REMARK   83  A    between atoms: _194  and  _195
REMARK   84  A    between atoms: _205  and  _207
REMARK   85  A    between atoms: _207  and  _208
REMARK   86  A    between atoms: _210  and  _212
REMARK   87  A    between atoms: _212  and  _213
REMARK   88  A    between atoms: _212  and  _215
REMARK   89  A    between atoms: _215  and  _216
REMARK   90  A    between atoms: _221  and  _222
REMARK   91  A    between atoms: _224  and  _226
REMARK   92  A    between atoms: _226  and  _227
REMARK   93  A    between atoms: _229  and  _231
REMARK   94  A    between atoms: _231  and  _232
REMARK   95  A    between atoms: _231  and  _234
REMARK   96  A    between atoms: _234  and  _235
REMARK   97  A    between atoms: _236  and  _238
REMARK   98  A    between atoms: _238  and  _239
REMARK   99  A    between atoms: _242  and  _244
REMARK  100  A    between atoms: _244  and  _245
REMARK  101  A    between atoms: _244  and  _247
REMARK  102  A    between atoms: _247  and  _248
REMARK  103  A    between atoms: _251  and  _253
REMARK  104  A    between atoms: _253  and  _254
REMARK  105  A    between atoms: _253  and  _256
REMARK  106  A    between atoms: _256  and  _257
REMARK  107  A    between atoms: _263  and  _264
REMARK  108  A    between atoms: _269  and  _271
REMARK  109  A    between atoms: _271  and  _272
REMARK  110  A    between atoms: _274  and  _276
REMARK  111  A    between atoms: _276  and  _277
REMARK  112  A    between atoms: _276  and  _279
REMARK  113  A    between atoms: _282  and  _284
REMARK  114  A    between atoms: _284  and  _285
REMARK  115  A    between atoms: _284  and  _287
REMARK  116  A    between atoms: _287  and  _288
REMARK  117  A    between atoms: _293  and  _294
REMARK                            x       y       z     vdW  Elec       q    Type
REMARK                         _______ _______ _______ _____ _____    ______ ____
ROOT
ATOM      1  O   HOH     1       6.486  56.266  56.224  0.00  0.00    +0.000 OA
ENDROOT
TORSDOF 0
REMARK  Name = ../refined-set-2016/1j16/1j16_pocket.pdb
REMARK  117 active torsions:
REMARK  status: ('A' for Active; 'I' for Inactive)
REMARK    1  A    between atoms: _1  and  _5
REMARK    2  A    between atoms: _5  and  _6
REMARK    3  A    between atoms: _5  and  _8
REMARK    4  A    between atoms: _8  and  _9
REMARK    5  A    between atoms: _12  and  _14
REMARK    6  A    between atoms: _14  and  _15
REMARK    7  A    between atoms: _14  and  _17
REMARK    8  A    between atoms: _20  and  _22
REMARK    9  A    between atoms: _22  and  _23
REMARK   10  A    between atoms: _22  and  _25
REMARK   11  A    between atoms: _25  and  _26
REMARK   12  A    between atoms: _31  and  _33
REMARK   13  A    between atoms: _33  and  _34
REMARK   14  A    between atoms: _33  and  _36
REMARK   15  A    between atoms: _36  and  _37
REMARK   16  A    between atoms: _42  and  _43
REMARK   17  A    between atoms: _45  and  _47
REMARK   18  A    between atoms: _47  and  _48
REMARK   19  A    between atoms: _47  and  _50
REMARK   20  A    between atoms: _50  and  _51
REMARK   21  A    between atoms: _54  and  _56
REMARK   22  A    between atoms: _56  and  _57
REMARK   23  A    between atoms: _56  and  _59
REMARK   24  A    between atoms: _59  and  _60
REMARK   25  A    between atoms: _65  and  _67
REMARK   26  A    between atoms: _67  and  _68
REMARK   27  A    between atoms: _67  and  _70
REMARK   28  A    between atoms: _70  and  _71
REMARK   29  A    between atoms: _77  and  _79
REMARK   30  A    between atoms: _79  and  _80
REMARK   31  A    between atoms: _79  and  _82
REMARK   32  A    between atoms: _85  and  _87
REMARK   33  A    between atoms: _87  and  _88
REMARK   34  A    between atoms: _87  and  _90
REMARK   35  A    between atoms: _90  and  _91
REMARK   36  A    between atoms: _91  and  _92
REMARK   37  A    between atoms: _92  and  _93
REMARK   38  A    between atoms: _93  and  _94
REMARK   39  A    between atoms: _98  and  _100
REMARK   40  A    between atoms: _100  and  _101
REMARK   41  A    between atoms: _100  and  _103
REMARK   42  A    between atoms: _103  and  _104
REMARK   43  A    between atoms: _107  and  _109
REMARK   44  A    between atoms: _109  and  _110
REMARK   45  A    between atoms: _113  and  _115
REMARK   46  A    between atoms: _115  and  _116
REMARK   47  A    between atoms: _115  and  _118
REMARK   48  A    between atoms: _118  and  _119
REMARK   49  A    between atoms: _119  and  _235
REMARK   50  A    between atoms: _120  and  _122
REMARK   51  A    between atoms: _122  and  _123
REMARK   52  A    between atoms: _122  and  _125
REMARK   53  A    between atoms: _125  and  _126
REMARK   54  A    between atoms: _126  and  _127
REMARK   55  A    between atoms: _132  and  _134
REMARK   56  A    between atoms: _134  and  _135
REMARK   57  A    between atoms: _137  and  _139
REMARK   58  A    between atoms: _139  and  _140
REMARK   59  A    between atoms: _139  and  _142
REMARK   60  A    between atoms: _142  and  _143
REMARK   61  A    between atoms: _146  and  _148
REMARK   62  A    between atoms: _148  and  _149
REMARK   63  A    between atoms: _148  and  _151
REMARK   64  A    between atoms: _151  and  _152
REMARK   65  A    between atoms: _154  and  _156
REMARK   66  A    between atoms: _156  and  _157
REMARK   67  A    between atoms: _159  and  _161
REMARK   68  A    between atoms: _161  and  _162
REMARK   69  A    between atoms: _164  and  _166
REMARK   70  A    between atoms: _166  and  _167
REMARK   71  A    between atoms: _166  and  _169
REMARK   72  A    between atoms: _169  and  _170
REMARK   73  A    between atoms: _173  and  _175
REMARK   74  A    between atoms: _175  and  _176
REMARK   75  A    between atoms: _175  and  _178
REMARK   76  A    between atoms: _181  and  _183
REMARK   77  A    between atoms: _183  and  _184
REMARK   78  A    between atoms: _183  and  _186
REMARK   79  A    between atoms: _186  and  _187
REMARK   80  A    between atoms: _189  and  _191
REMARK   81  A    between atoms: _191  and  _192
REMARK   82  A    between atoms: _191  and  _194
REMARK   83  A    between atoms: _194  and  _195
REMARK   84  A    between atoms: _205  and  _207
REMARK   85  A    between atoms: _207  and  _208
REMARK   86  A    between atoms: _210  and  _212
REMARK   87  A    between atoms: _212  and  _213
REMARK   88  A    between atoms: _212  and  _215
REMARK   89  A    between atoms: _215  and  _216
REMARK   90  A    between atoms: _221  and  _222
REMARK   91  A    between atoms: _224  and  _226
REMARK   92  A    between atoms: _226  and  _227
REMARK   93  A    between atoms: _229  and  _231
REMARK   94  A    between atoms: _231  and  _232
REMARK   95  A    between atoms: _231  and  _234
REMARK   96  A    between atoms: _234  and  _235
REMARK   97  A    between atoms: _236  and  _238
REMARK   98  A    between atoms: _238  and  _239
REMARK   99  A    between atoms: _242  and  _244
REMARK  100  A    between atoms: _244  and  _245
REMARK  101  A    between atoms: _244  and  _247
REMARK  102  A    between atoms: _247  and  _248
REMARK  103  A    between atoms: _251  and  _253
REMARK  104  A    between atoms: _253  and  _254
REMARK  105  A    between atoms: _253  and  _256
REMARK  106  A    between atoms: _256  and  _257
REMARK  107  A    between atoms: _263  and  _264
REMARK  108  A    between atoms: _269  and  _271
REMARK  109  A    between atoms: _271  and  _272
REMARK  110  A    between atoms: _274  and  _276
REMARK  111  A    between atoms: _276  and  _277
REMARK  112  A    between atoms: _276  and  _279
REMARK  113  A    between atoms: _282  and  _284
REMARK  114  A    between atoms: _284  and  _285
REMARK  115  A    between atoms: _284  and  _287
REMARK  116  A    between atoms: _287  and  _288
REMARK  117  A    between atoms: _293  and  _294
REMARK                            x       y       z     vdW  Elec       q    Type
REMARK                         _______ _______ _______ _____ _____    ______ ____
ROOT
ATOM      1  O   HOH     1       9.757  54.781  55.472  0.00  0.00    +0.000 OA
ENDROOT
TORSDOF 0
REMARK  Name = ../refined-set-2016/1j16/1j16_pocket.pdb
REMARK  117 active torsions:
REMARK  status: ('A' for Active; 'I' for Inactive)
REMARK    1  A    between atoms: _1  and  _5
REMARK    2  A    between atoms: _5  and  _6
REMARK    3  A    between atoms: _5  and  _8
REMARK    4  A    between atoms: _8  and  _9
REMARK    5  A    between atoms: _12  and  _14
REMARK    6  A    between atoms: _14  and  _15
REMARK    7  A    between atoms: _14  and  _17
REMARK    8  A    between atoms: _20  and  _22
REMARK    9  A    between atoms: _22  and  _23
REMARK   10  A    between atoms: _22  and  _25
REMARK   11  A    between atoms: _25  and  _26
REMARK   12  A    between atoms: _31  and  _33
REMARK   13  A    between atoms: _33  and  _34
REMARK   14  A    between atoms: _33  and  _36
REMARK   15  A    between atoms: _36  and  _37
REMARK   16  A    between atoms: _42  and  _43
REMARK   17  A    between atoms: _45  and  _47
REMARK   18  A    between atoms: _47  and  _48
REMARK   19  A    between atoms: _47  and  _50
REMARK   20  A    between atoms: _50  and  _51
REMARK   21  A    between atoms: _54  and  _56
REMARK   22  A    between atoms: _56  and  _57
REMARK   23  A    between atoms: _56  and  _59
REMARK   24  A    between atoms: _59  and  _60
REMARK   25  A    between atoms: _65  and  _67
REMARK   26  A    between atoms: _67  and  _68
REMARK   27  A    between atoms: _67  and  _70
REMARK   28  A    between atoms: _70  and  _71
REMARK   29  A    between atoms: _77  and  _79
REMARK   30  A    between atoms: _79  and  _80
REMARK   31  A    between atoms: _79  and  _82
REMARK   32  A    between atoms: _85  and  _87
REMARK   33  A    between atoms: _87  and  _88
REMARK   34  A    between atoms: _87  and  _90
REMARK   35  A    between atoms: _90  and  _91
REMARK   36  A    between atoms: _91  and  _92
REMARK   37  A    between atoms: _92  and  _93
REMARK   38  A    between atoms: _93  and  _94
REMARK   39  A    between atoms: _98  and  _100
REMARK   40  A    between atoms: _100  and  _101
REMARK   41  A    between atoms: _100  and  _103
REMARK   42  A    between atoms: _103  and  _104
REMARK   43  A    between atoms: _107  and  _109
REMARK   44  A    between atoms: _109  and  _110
REMARK   45  A    between atoms: _113  and  _115
REMARK   46  A    between atoms: _115  and  _116
REMARK   47  A    between atoms: _115  and  _118
REMARK   48  A    between atoms: _118  and  _119
REMARK   49  A    between atoms: _119  and  _235
REMARK   50  A    between atoms: _120  and  _122
REMARK   51  A    between atoms: _122  and  _123
REMARK   52  A    between atoms: _122  and  _125
REMARK   53  A    between atoms: _125  and  _126
REMARK   54  A    between atoms: _126  and  _127
REMARK   55  A    between atoms: _132  and  _134
REMARK   56  A    between atoms: _134  and  _135
REMARK   57  A    between atoms: _137  and  _139
REMARK   58  A    between atoms: _139  and  _140
REMARK   59  A    between atoms: _139  and  _142
REMARK   60  A    between atoms: _142  and  _143
REMARK   61  A    between atoms: _146  and  _148
REMARK   62  A    between atoms: _148  and  _149
REMARK   63  A    between atoms: _148  and  _151
REMARK   64  A    between atoms: _151  and  _152
REMARK   65  A    between atoms: _154  and  _156
REMARK   66  A    between atoms: _156  and  _157
REMARK   67  A    between atoms: _159  and  _161
REMARK   68  A    between atoms: _161  and  _162
REMARK   69  A    between atoms: _164  and  _166
REMARK   70  A    between atoms: _166  and  _167
REMARK   71  A    between atoms: _166  and  _169
REMARK   72  A    between atoms: _169  and  _170
REMARK   73  A    between atoms: _173  and  _175
REMARK   74  A    between atoms: _175  and  _176
REMARK   75  A    between atoms: _175  and  _178
REMARK   76  A    between atoms: _181  and  _183
REMARK   77  A    between atoms: _183  and  _184
REMARK   78  A    between atoms: _183  and  _186
REMARK   79  A    between atoms: _186  and  _187
REMARK   80  A    between atoms: _189  and  _191
REMARK   81  A    between atoms: _191  and  _192
REMARK   82  A    between atoms: _191  and  _194
REMARK   83  A    between atoms: _194  and  _195
REMARK   84  A    between atoms: _205  and  _207
REMARK   85  A    between atoms: _207  and  _208
REMARK   86  A    between atoms: _210  and  _212
REMARK   87  A    between atoms: _212  and  _213
REMARK   88  A    between atoms: _212  and  _215
REMARK   89  A    between atoms: _215  and  _216
REMARK   90  A    between atoms: _221  and  _222
REMARK   91  A    between atoms: _224  and  _226
REMARK   92  A    between atoms: _226  and  _227
REMARK   93  A    between atoms: _229  and  _231
REMARK   94  A    between atoms: _231  and  _232
REMARK   95  A    between atoms: _231  and  _234
REMARK   96  A    between atoms: _234  and  _235
REMARK   97  A    between atoms: _236  and  _238
REMARK   98  A    between atoms: _238  and  _239
REMARK   99  A    between atoms: _242  and  _244
REMARK  100  A    between atoms: _244  and  _245
REMARK  101  A    between atoms: _244  and  _247
REMARK  102  A    between atoms: _247  and  _248
REMARK  103  A    between atoms: _251  and  _253
REMARK  104  A    between atoms: _253  and  _254
REMARK  105  A    between atoms: _253  and  _256
REMARK  106  A    between atoms: _256  and  _257
REMARK  107  A    between atoms: _263  and  _264
REMARK  108  A    between atoms: _269  and  _271
REMARK  109  A    between atoms: _271  and  _272
REMARK  110  A    between atoms: _274  and  _276
REMARK  111  A    between atoms: _276  and  _277
REMARK  112  A    between atoms: _276  and  _279
REMARK  113  A    between atoms: _282  and  _284
REMARK  114  A    between atoms: _284  and  _285
REMARK  115  A    between atoms: _284  and  _287
REMARK  116  A    between atoms: _287  and  _288
REMARK  117  A    between atoms: _293  and  _294
REMARK                            x       y       z     vdW  Elec       q    Type
REMARK                         _______ _______ _______ _____ _____    ______ ____
ROOT
ATOM      1  O   HOH     1       9.705  49.627  51.637  0.00  0.00    +0.000 OA
ENDROOT
TORSDOF 0
REMARK  Name = ../refined-set-2016/1j16/1j16_pocket.pdb
REMARK  117 active torsions:
REMARK  status: ('A' for Active; 'I' for Inactive)
REMARK    1  A    between atoms: _1  and  _5
REMARK    2  A    between atoms: _5  and  _6
REMARK    3  A    between atoms: _5  and  _8
REMARK    4  A    between atoms: _8  and  _9
REMARK    5  A    between atoms: _12  and  _14
REMARK    6  A    between atoms: _14  and  _15
REMARK    7  A    between atoms: _14  and  _17
REMARK    8  A    between atoms: _20  and  _22
REMARK    9  A    between atoms: _22  and  _23
REMARK   10  A    between atoms: _22  and  _25
REMARK   11  A    between atoms: _25  and  _26
REMARK   12  A    between atoms: _31  and  _33
REMARK   13  A    between atoms: _33  and  _34
REMARK   14  A    between atoms: _33  and  _36
REMARK   15  A    between atoms: _36  and  _37
REMARK   16  A    between atoms: _42  and  _43
REMARK   17  A    between atoms: _45  and  _47
REMARK   18  A    between atoms: _47  and  _48
REMARK   19  A    between atoms: _47  and  _50
REMARK   20  A    between atoms: _50  and  _51
REMARK   21  A    between atoms: _54  and  _56
REMARK   22  A    between atoms: _56  and  _57
REMARK   23  A    between atoms: _56  and  _59
REMARK   24  A    between atoms: _59  and  _60
REMARK   25  A    between atoms: _65  and  _67
REMARK   26  A    between atoms: _67  and  _68
REMARK   27  A    between atoms: _67  and  _70
REMARK   28  A    between atoms: _70  and  _71
REMARK   29  A    between atoms: _77  and  _79
REMARK   30  A    between atoms: _79  and  _80
REMARK   31  A    between atoms: _79  and  _82
REMARK   32  A    between atoms: _85  and  _87
REMARK   33  A    between atoms: _87  and  _88
REMARK   34  A    between atoms: _87  and  _90
REMARK   35  A    between atoms: _90  and  _91
REMARK   36  A    between atoms: _91  and  _92
REMARK   37  A    between atoms: _92  and  _93
REMARK   38  A    between atoms: _93  and  _94
REMARK   39  A    between atoms: _98  and  _100
REMARK   40  A    between atoms: _100  and  _101
REMARK   41  A    between atoms: _100  and  _103
REMARK   42  A    between atoms: _103  and  _104
REMARK   43  A    between atoms: _107  and  _109
REMARK   44  A    between atoms: _109  and  _110
REMARK   45  A    between atoms: _113  and  _115
REMARK   46  A    between atoms: _115  and  _116
REMARK   47  A    between atoms: _115  and  _118
REMARK   48  A    between atoms: _118  and  _119
REMARK   49  A    between atoms: _119  and  _235
REMARK   50  A    between atoms: _120  and  _122
REMARK   51  A    between atoms: _122  and  _123
REMARK   52  A    between atoms: _122  and  _125
REMARK   53  A    between atoms: _125  and  _126
REMARK   54  A    between atoms: _126  and  _127
REMARK   55  A    between atoms: _132  and  _134
REMARK   56  A    between atoms: _134  and  _135
REMARK   57  A    between atoms: _137  and  _139
REMARK   58  A    between atoms: _139  and  _140
REMARK   59  A    between atoms: _139  and  _142
REMARK   60  A    between atoms: _142  and  _143
REMARK   61  A    between atoms: _146  and  _148
REMARK   62  A    between atoms: _148  and  _149
REMARK   63  A    between atoms: _148  and  _151
REMARK   64  A    between atoms: _151  and  _152
REMARK   65  A    between atoms: _154  and  _156
REMARK   66  A    between atoms: _156  and  _157
REMARK   67  A    between atoms: _159  and  _161
REMARK   68  A    between atoms: _161  and  _162
REMARK   69  A    between atoms: _164  and  _166
REMARK   70  A    between atoms: _166  and  _167
REMARK   71  A    between atoms: _166  and  _169
REMARK   72  A    between atoms: _169  and  _170
REMARK   73  A    between atoms: _173  and  _175
REMARK   74  A    between atoms: _175  and  _176
REMARK   75  A    between atoms: _175  and  _178
REMARK   76  A    between atoms: _181  and  _183
REMARK   77  A    between atoms: _183  and  _184
REMARK   78  A    between atoms: _183  and  _186
REMARK   79  A    between atoms: _186  and  _187
REMARK   80  A    between atoms: _189  and  _191
REMARK   81  A    between atoms: _191  and  _192
REMARK   82  A    between atoms: _191  and  _194
REMARK   83  A    between atoms: _194  and  _195
REMARK   84  A    between atoms: _205  and  _207
REMARK   85  A    between atoms: _207  and  _208
REMARK   86  A    between atoms: _210  and  _212
REMARK   87  A    between atoms: _212  and  _213
REMARK   88  A    between atoms: _212  and  _215
REMARK   89  A    between atoms: _215  and  _216
REMARK   90  A    between atoms: _221  and  _222
REMARK   91  A    between atoms: _224  and  _226
REMARK   92  A    between atoms: _226  and  _227
REMARK   93  A    between atoms: _229  and  _231
REMARK   94  A    between atoms: _231  and  _232
REMARK   95  A    between atoms: _231  and  _234
REMARK   96  A    between atoms: _234  and  _235
REMARK   97  A    between atoms: _236  and  _238
REMARK   98  A    between atoms: _238  and  _239
REMARK   99  A    between atoms: _242  and  _244
REMARK  100  A    between atoms: _244  and  _245
REMARK  101  A    between atoms: _244  and  _247
REMARK  102  A    between atoms: _247  and  _248
REMARK  103  A    between atoms: _251  and  _253
REMARK  104  A    between atoms: _253  and  _254
REMARK  105  A    between atoms: _253  and  _256
REMARK  106  A    between atoms: _256  and  _257
REMARK  107  A    between atoms: _263  and  _264
REMARK  108  A    between atoms: _269  and  _271
REMARK  109  A    between atoms: _271  and  _272
REMARK  110  A    between atoms: _274  and  _276
REMARK  111  A    between atoms: _276  and  _277
REMARK  112  A    between atoms: _276  and  _279
REMARK  113  A    between atoms: _282  and  _284
REMARK  114  A    between atoms: _284  and  _285
REMARK  115  A    between atoms: _284  and  _287
REMARK  116  A    between atoms: _287  and  _288
REMARK  117  A    between atoms: _293  and  _294
REMARK                            x       y       z     vdW  Elec       q    Type
REMARK                         _______ _______ _______ _____ _____    ______ ____
ROOT
ATOM      1  O   HOH     1       6.535  56.813  50.051  0.00  0.00    +0.000 OA
ENDROOT
TORSDOF 0
REMARK  Name = ../refined-set-2016/1j16/1j16_pocket.pdb
REMARK  117 active torsions:
REMARK  status: ('A' for Active; 'I' for Inactive)
REMARK    1  A    between atoms: _1  and  _5
REMARK    2  A    between atoms: _5  and  _6
REMARK    3  A    between atoms: _5  and  _8
REMARK    4  A    between atoms: _8  and  _9
REMARK    5  A    between atoms: _12  and  _14
REMARK    6  A    between atoms: _14  and  _15
REMARK    7  A    between atoms: _14  and  _17
REMARK    8  A    between atoms: _20  and  _22
REMARK    9  A    between atoms: _22  and  _23
REMARK   10  A    between atoms: _22  and  _25
REMARK   11  A    between atoms: _25  and  _26
REMARK   12  A    between atoms: _31  and  _33
REMARK   13  A    between atoms: _33  and  _34
REMARK   14  A    between atoms: _33  and  _36
REMARK   15  A    between atoms: _36  and  _37
REMARK   16  A    between atoms: _42  and  _43
REMARK   17  A    between atoms: _45  and  _47
REMARK   18  A    between atoms: _47  and  _48
REMARK   19  A    between atoms: _47  and  _50
REMARK   20  A    between atoms: _50  and  _51
REMARK   21  A    between atoms: _54  and  _56
REMARK   22  A    between atoms: _56  and  _57
REMARK   23  A    between atoms: _56  and  _59
REMARK   24  A    between atoms: _59  and  _60
REMARK   25  A    between atoms: _65  and  _67
REMARK   26  A    between atoms: _67  and  _68
REMARK   27  A    between atoms: _67  and  _70
REMARK   28  A    between atoms: _70  and  _71
REMARK   29  A    between atoms: _77  and  _79
REMARK   30  A    between atoms: _79  and  _80
REMARK   31  A    between atoms: _79  and  _82
REMARK   32  A    between atoms: _85  and  _87
REMARK   33  A    between atoms: _87  and  _88
REMARK   34  A    between atoms: _87  and  _90
REMARK   35  A    between atoms: _90  and  _91
REMARK   36  A    between atoms: _91  and  _92
REMARK   37  A    between atoms: _92  and  _93
REMARK   38  A    between atoms: _93  and  _94
REMARK   39  A    between atoms: _98  and  _100
REMARK   40  A    between atoms: _100  and  _101
REMARK   41  A    between atoms: _100  and  _103
REMARK   42  A    between atoms: _103  and  _104
REMARK   43  A    between atoms: _107  and  _109
REMARK   44  A    between atoms: _109  and  _110
REMARK   45  A    between atoms: _113  and  _115
REMARK   46  A    between atoms: _115  and  _116
REMARK   47  A    between atoms: _115  and  _118
REMARK   48  A    between atoms: _118  and  _119
REMARK   49  A    between atoms: _119  and  _235
REMARK   50  A    between atoms: _120  and  _122
REMARK   51  A    between atoms: _122  and  _123
REMARK   52  A    between atoms: _122  and  _125
REMARK   53  A    between atoms: _125  and  _126
REMARK   54  A    between atoms: _126  and  _127
REMARK   55  A    between atoms: _132  and  _134
REMARK   56  A    between atoms: _134  and  _135
REMARK   57  A    between atoms: _137  and  _139
REMARK   58  A    between atoms: _139  and  _140
REMARK   59  A    between atoms: _139  and  _142
REMARK   60  A    between atoms: _142  and  _143
REMARK   61  A    between atoms: _146  and  _148
REMARK   62  A    between atoms: _148  and  _149
REMARK   63  A    between atoms: _148  and  _151
REMARK   64  A    between atoms: _151  and  _152
REMARK   65  A    between atoms: _154  and  _156
REMARK   66  A    between atoms: _156  and  _157
REMARK   67  A    between atoms: _159  and  _161
REMARK   68  A    between atoms: _161  and  _162
REMARK   69  A    between atoms: _164  and  _166
REMARK   70  A    between atoms: _166  and  _167
REMARK   71  A    between atoms: _166  and  _169
REMARK   72  A    between atoms: _169  and  _170
REMARK   73  A    between atoms: _173  and  _175
REMARK   74  A    between atoms: _175  and  _176
REMARK   75  A    between atoms: _175  and  _178
REMARK   76  A    between atoms: _181  and  _183
REMARK   77  A    between atoms: _183  and  _184
REMARK   78  A    between atoms: _183  and  _186
REMARK   79  A    between atoms: _186  and  _187
REMARK   80  A    between atoms: _189  and  _191
REMARK   81  A    between atoms: _191  and  _192
REMARK   82  A    between atoms: _191  and  _194
REMARK   83  A    between atoms: _194  and  _195
REMARK   84  A    between atoms: _205  and  _207
REMARK   85  A    between atoms: _207  and  _208
REMARK   86  A    between atoms: _210  and  _212
REMARK   87  A    between atoms: _212  and  _213
REMARK   88  A    between atoms: _212  and  _215
REMARK   89  A    between atoms: _215  and  _216
REMARK   90  A    between atoms: _221  and  _222
REMARK   91  A    between atoms: _224  and  _226
REMARK   92  A    between atoms: _226  and  _227
REMARK   93  A    between atoms: _229  and  _231
REMARK   94  A    between atoms: _231  and  _232
REMARK   95  A    between atoms: _231  and  _234
REMARK   96  A    between atoms: _234  and  _235
REMARK   97  A    between atoms: _236  and  _238
REMARK   98  A    between atoms: _238  and  _239
REMARK   99  A    between atoms: _242  and  _244
REMARK  100  A    between atoms: _244  and  _245
REMARK  101  A    between atoms: _244  and  _247
REMARK  102  A    between atoms: _247  and  _248
REMARK  103  A    between atoms: _251  and  _253
REMARK  104  A    between atoms: _253  and  _254
REMARK  105  A    between atoms: _253  and  _256
REMARK  106  A    between atoms: _256  and  _257
REMARK  107  A    between atoms: _263  and  _264
REMARK  108  A    between atoms: _269  and  _271
REMARK  109  A    between atoms: _271  and  _272
REMARK  110  A    between atoms: _274  and  _276
REMARK  111  A    between atoms: _276  and  _277
REMARK  112  A    between atoms: _276  and  _279
REMARK  113  A    between atoms: _282  and  _284
REMARK  114  A    between atoms: _284  and  _285
REMARK  115  A    between atoms: _284  and  _287
REMARK  116  A    between atoms: _287  and  _288
REMARK  117  A    between atoms: _293  and  _294
REMARK                            x       y       z     vdW  Elec       q    Type
REMARK                         _______ _______ _______ _____ _____    ______ ____
ROOT
ATOM      1  O   HOH     1      10.608  48.303  58.962  0.00  0.00    +0.000 OA
ENDROOT
TORSDOF 0
REMARK  Name = ../refined-set-2016/1j16/1j16_pocket.pdb
REMARK  117 active torsions:
REMARK  status: ('A' for Active; 'I' for Inactive)
REMARK    1  A    between atoms: _1  and  _5
REMARK    2  A    between atoms: _5  and  _6
REMARK    3  A    between atoms: _5  and  _8
REMARK    4  A    between atoms: _8  and  _9
REMARK    5  A    between atoms: _12  and  _14
REMARK    6  A    between atoms: _14  and  _15
REMARK    7  A    between atoms: _14  and  _17
REMARK    8  A    between atoms: _20  and  _22
REMARK    9  A    between atoms: _22  and  _23
REMARK   10  A    between atoms: _22  and  _25
REMARK   11  A    between atoms: _25  and  _26
REMARK   12  A    between atoms: _31  and  _33
REMARK   13  A    between atoms: _33  and  _34
REMARK   14  A    between atoms: _33  and  _36
REMARK   15  A    between atoms: _36  and  _37
REMARK   16  A    between atoms: _42  and  _43
REMARK   17  A    between atoms: _45  and  _47
REMARK   18  A    between atoms: _47  and  _48
REMARK   19  A    between atoms: _47  and  _50
REMARK   20  A    between atoms: _50  and  _51
REMARK   21  A    between atoms: _54  and  _56
REMARK   22  A    between atoms: _56  and  _57
REMARK   23  A    between atoms: _56  and  _59
REMARK   24  A    between atoms: _59  and  _60
REMARK   25  A    between atoms: _65  and  _67
REMARK   26  A    between atoms: _67  and  _68
REMARK   27  A    between atoms: _67  and  _70
REMARK   28  A    between atoms: _70  and  _71
REMARK   29  A    between atoms: _77  and  _79
REMARK   30  A    between atoms: _79  and  _80
REMARK   31  A    between atoms: _79  and  _82
REMARK   32  A    between atoms: _85  and  _87
REMARK   33  A    between atoms: _87  and  _88
REMARK   34  A    between atoms: _87  and  _90
REMARK   35  A    between atoms: _90  and  _91
REMARK   36  A    between atoms: _91  and  _92
REMARK   37  A    between atoms: _92  and  _93
REMARK   38  A    between atoms: _93  and  _94
REMARK   39  A    between atoms: _98  and  _100
REMARK   40  A    between atoms: _100  and  _101
REMARK   41  A    between atoms: _100  and  _103
REMARK   42  A    between atoms: _103  and  _104
REMARK   43  A    between atoms: _107  and  _109
REMARK   44  A    between atoms: _109  and  _110
REMARK   45  A    between atoms: _113  and  _115
REMARK   46  A    between atoms: _115  and  _116
REMARK   47  A    between atoms: _115  and  _118
REMARK   48  A    between atoms: _118  and  _119
REMARK   49  A    between atoms: _119  and  _235
REMARK   50  A    between atoms: _120  and  _122
REMARK   51  A    between atoms: _122  and  _123
REMARK   52  A    between atoms: _122  and  _125
REMARK   53  A    between atoms: _125  and  _126
REMARK   54  A    between atoms: _126  and  _127
REMARK   55  A    between atoms: _132  and  _134
REMARK   56  A    between atoms: _134  and  _135
REMARK   57  A    between atoms: _137  and  _139
REMARK   58  A    between atoms: _139  and  _140
REMARK   59  A    between atoms: _139  and  _142
REMARK   60  A    between atoms: _142  and  _143
REMARK   61  A    between atoms: _146  and  _148
REMARK   62  A    between atoms: _148  and  _149
REMARK   63  A    between atoms: _148  and  _151
REMARK   64  A    between atoms: _151  and  _152
REMARK   65  A    between atoms: _154  and  _156
REMARK   66  A    between atoms: _156  and  _157
REMARK   67  A    between atoms: _159  and  _161
REMARK   68  A    between atoms: _161  and  _162
REMARK   69  A    between atoms: _164  and  _166
REMARK   70  A    between atoms: _166  and  _167
REMARK   71  A    between atoms: _166  and  _169
REMARK   72  A    between atoms: _169  and  _170
REMARK   73  A    between atoms: _173  and  _175
REMARK   74  A    between atoms: _175  and  _176
REMARK   75  A    between atoms: _175  and  _178
REMARK   76  A    between atoms: _181  and  _183
REMARK   77  A    between atoms: _183  and  _184
REMARK   78  A    between atoms: _183  and  _186
REMARK   79  A    between atoms: _186  and  _187
REMARK   80  A    between atoms: _189  and  _191
REMARK   81  A    between atoms: _191  and  _192
REMARK   82  A    between atoms: _191  and  _194
REMARK   83  A    between atoms: _194  and  _195
REMARK   84  A    between atoms: _205  and  _207
REMARK   85  A    between atoms: _207  and  _208
REMARK   86  A    between atoms: _210  and  _212
REMARK   87  A    between atoms: _212  and  _213
REMARK   88  A    between atoms: _212  and  _215
REMARK   89  A    between atoms: _215  and  _216
REMARK   90  A    between atoms: _221  and  _222
REMARK   91  A    between atoms: _224  and  _226
REMARK   92  A    between atoms: _226  and  _227
REMARK   93  A    between atoms: _229  and  _231
REMARK   94  A    between atoms: _231  and  _232
REMARK   95  A    between atoms: _231  and  _234
REMARK   96  A    between atoms: _234  and  _235
REMARK   97  A    between atoms: _236  and  _238
REMARK   98  A    between atoms: _238  and  _239
REMARK   99  A    between atoms: _242  and  _244
REMARK  100  A    between atoms: _244  and  _245
REMARK  101  A    between atoms: _244  and  _247
REMARK  102  A    between atoms: _247  and  _248
REMARK  103  A    between atoms: _251  and  _253
REMARK  104  A    between atoms: _253  and  _254
REMARK  105  A    between atoms: _253  and  _256
REMARK  106  A    between atoms: _256  and  _257
REMARK  107  A    between atoms: _263  and  _264
REMARK  108  A    between atoms: _269  and  _271
REMARK  109  A    between atoms: _271  and  _272
REMARK  110  A    between atoms: _274  and  _276
REMARK  111  A    between atoms: _276  and  _277
REMARK  112  A    between atoms: _276  and  _279
REMARK  113  A    between atoms: _282  and  _284
REMARK  114  A    between atoms: _284  and  _285
REMARK  115  A    between atoms: _284  and  _287
REMARK  116  A    between atoms: _287  and  _288
REMARK  117  A    between atoms: _293  and  _294
REMARK                            x       y       z     vdW  Elec       q    Type
REMARK                         _______ _______ _______ _____ _____    ______ ____
ROOT
ATOM      1  O   HOH     1      10.496  45.718  57.534  0.00  0.00    +0.000 OA
ENDROOT
TORSDOF 0
REMARK  Name = ../refined-set-2016/1j16/1j16_pocket.pdb
REMARK  117 active torsions:
REMARK  status: ('A' for Active; 'I' for Inactive)
REMARK    1  A    between atoms: _1  and  _5
REMARK    2  A    between atoms: _5  and  _6
REMARK    3  A    between atoms: _5  and  _8
REMARK    4  A    between atoms: _8  and  _9
REMARK    5  A    between atoms: _12  and  _14
REMARK    6  A    between atoms: _14  and  _15
REMARK    7  A    between atoms: _14  and  _17
REMARK    8  A    between atoms: _20  and  _22
REMARK    9  A    between atoms: _22  and  _23
REMARK   10  A    between atoms: _22  and  _25
REMARK   11  A    between atoms: _25  and  _26
REMARK   12  A    between atoms: _31  and  _33
REMARK   13  A    between atoms: _33  and  _34
REMARK   14  A    between atoms: _33  and  _36
REMARK   15  A    between atoms: _36  and  _37
REMARK   16  A    between atoms: _42  and  _43
REMARK   17  A    between atoms: _45  and  _47
REMARK   18  A    between atoms: _47  and  _48
REMARK   19  A    between atoms: _47  and  _50
REMARK   20  A    between atoms: _50  and  _51
REMARK   21  A    between atoms: _54  and  _56
REMARK   22  A    between atoms: _56  and  _57
REMARK   23  A    between atoms: _56  and  _59
REMARK   24  A    between atoms: _59  and  _60
REMARK   25  A    between atoms: _65  and  _67
REMARK   26  A    between atoms: _67  and  _68
REMARK   27  A    between atoms: _67  and  _70
REMARK   28  A    between atoms: _70  and  _71
REMARK   29  A    between atoms: _77  and  _79
REMARK   30  A    between atoms: _79  and  _80
REMARK   31  A    between atoms: _79  and  _82
REMARK   32  A    between atoms: _85  and  _87
REMARK   33  A    between atoms: _87  and  _88
REMARK   34  A    between atoms: _87  and  _90
REMARK   35  A    between atoms: _90  and  _91
REMARK   36  A    between atoms: _91  and  _92
REMARK   37  A    between atoms: _92  and  _93
REMARK   38  A    between atoms: _93  and  _94
REMARK   39  A    between atoms: _98  and  _100
REMARK   40  A    between atoms: _100  and  _101
REMARK   41  A    between atoms: _100  and  _103
REMARK   42  A    between atoms: _103  and  _104
REMARK   43  A    between atoms: _107  and  _109
REMARK   44  A    between atoms: _109  and  _110
REMARK   45  A    between atoms: _113  and  _115
REMARK   46  A    between atoms: _115  and  _116
REMARK   47  A    between atoms: _115  and  _118
REMARK   48  A    between atoms: _118  and  _119
REMARK   49  A    between atoms: _119  and  _235
REMARK   50  A    between atoms: _120  and  _122
REMARK   51  A    between atoms: _122  and  _123
REMARK   52  A    between atoms: _122  and  _125
REMARK   53  A    between atoms: _125  and  _126
REMARK   54  A    between atoms: _126  and  _127
REMARK   55  A    between atoms: _132  and  _134
REMARK   56  A    between atoms: _134  and  _135
REMARK   57  A    between atoms: _137  and  _139
REMARK   58  A    between atoms: _139  and  _140
REMARK   59  A    between atoms: _139  and  _142
REMARK   60  A    between atoms: _142  and  _143
REMARK   61  A    between atoms: _146  and  _148
REMARK   62  A    between atoms: _148  and  _149
REMARK   63  A    between atoms: _148  and  _151
REMARK   64  A    between atoms: _151  and  _152
REMARK   65  A    between atoms: _154  and  _156
REMARK   66  A    between atoms: _156  and  _157
REMARK   67  A    between atoms: _159  and  _161
REMARK   68  A    between atoms: _161  and  _162
REMARK   69  A    between atoms: _164  and  _166
REMARK   70  A    between atoms: _166  and  _167
REMARK   71  A    between atoms: _166  and  _169
REMARK   72  A    between atoms: _169  and  _170
REMARK   73  A    between atoms: _173  and  _175
REMARK   74  A    between atoms: _175  and  _176
REMARK   75  A    between atoms: _175  and  _178
REMARK   76  A    between atoms: _181  and  _183
REMARK   77  A    between atoms: _183  and  _184
REMARK   78  A    between atoms: _183  and  _186
REMARK   79  A    between atoms: _186  and  _187
REMARK   80  A    between atoms: _189  and  _191
REMARK   81  A    between atoms: _191  and  _192
REMARK   82  A    between atoms: _191  and  _194
REMARK   83  A    between atoms: _194  and  _195
REMARK   84  A    between atoms: _205  and  _207
REMARK   85  A    between atoms: _207  and  _208
REMARK   86  A    between atoms: _210  and  _212
REMARK   87  A    between atoms: _212  and  _213
REMARK   88  A    between atoms: _212  and  _215
REMARK   89  A    between atoms: _215  and  _216
REMARK   90  A    between atoms: _221  and  _222
REMARK   91  A    between atoms: _224  and  _226
REMARK   92  A    between atoms: _226  and  _227
REMARK   93  A    between atoms: _229  and  _231
REMARK   94  A    between atoms: _231  and  _232
REMARK   95  A    between atoms: _231  and  _234
REMARK   96  A    between atoms: _234  and  _235
REMARK   97  A    between atoms: _236  and  _238
REMARK   98  A    between atoms: _238  and  _239
REMARK   99  A    between atoms: _242  and  _244
REMARK  100  A    between atoms: _244  and  _245
REMARK  101  A    between atoms: _244  and  _247
REMARK  102  A    between atoms: _247  and  _248
REMARK  103  A    between atoms: _251  and  _253
REMARK  104  A    between atoms: _253  and  _254
REMARK  105  A    between atoms: _253  and  _256
REMARK  106  A    between atoms: _256  and  _257
REMARK  107  A    between atoms: _263  and  _264
REMARK  108  A    between atoms: _269  and  _271
REMARK  109  A    between atoms: _271  and  _272
REMARK  110  A    between atoms: _274  and  _276
REMARK  111  A    between atoms: _276  and  _277
REMARK  112  A    between atoms: _276  and  _279
REMARK  113  A    between atoms: _282  and  _284
REMARK  114  A    between atoms: _284  and  _285
REMARK  115  A    between atoms: _284  and  _287
REMARK  116  A    between atoms: _287  and  _288
REMARK  117  A    between atoms: _293  and  _294
REMARK                            x       y       z     vdW  Elec       q    Type
REMARK                         _______ _______ _______ _____ _____    ______ ____
ROOT
ATOM      1  O   HOH     1      10.037  43.392  59.830  0.00  0.00    +0.000 OA
ENDROOT
TORSDOF 0
REMARK  Name = ../refined-set-2016/1j16/1j16_pocket.pdb
REMARK  117 active torsions:
REMARK  status: ('A' for Active; 'I' for Inactive)
REMARK    1  A    between atoms: _1  and  _5
REMARK    2  A    between atoms: _5  and  _6
REMARK    3  A    between atoms: _5  and  _8
REMARK    4  A    between atoms: _8  and  _9
REMARK    5  A    between atoms: _12  and  _14
REMARK    6  A    between atoms: _14  and  _15
REMARK    7  A    between atoms: _14  and  _17
REMARK    8  A    between atoms: _20  and  _22
REMARK    9  A    between atoms: _22  and  _23
REMARK   10  A    between atoms: _22  and  _25
REMARK   11  A    between atoms: _25  and  _26
REMARK   12  A    between atoms: _31  and  _33
REMARK   13  A    between atoms: _33  and  _34
REMARK   14  A    between atoms: _33  and  _36
REMARK   15  A    between atoms: _36  and  _37
REMARK   16  A    between atoms: _42  and  _43
REMARK   17  A    between atoms: _45  and  _47
REMARK   18  A    between atoms: _47  and  _48
REMARK   19  A    between atoms: _47  and  _50
REMARK   20  A    between atoms: _50  and  _51
REMARK   21  A    between atoms: _54  and  _56
REMARK   22  A    between atoms: _56  and  _57
REMARK   23  A    between atoms: _56  and  _59
REMARK   24  A    between atoms: _59  and  _60
REMARK   25  A    between atoms: _65  and  _67
REMARK   26  A    between atoms: _67  and  _68
REMARK   27  A    between atoms: _67  and  _70
REMARK   28  A    between atoms: _70  and  _71
REMARK   29  A    between atoms: _77  and  _79
REMARK   30  A    between atoms: _79  and  _80
REMARK   31  A    between atoms: _79  and  _82
REMARK   32  A    between atoms: _85  and  _87
REMARK   33  A    between atoms: _87  and  _88
REMARK   34  A    between atoms: _87  and  _90
REMARK   35  A    between atoms: _90  and  _91
REMARK   36  A    between atoms: _91  and  _92
REMARK   37  A    between atoms: _92  and  _93
REMARK   38  A    between atoms: _93  and  _94
REMARK   39  A    between atoms: _98  and  _100
REMARK   40  A    between atoms: _100  and  _101
REMARK   41  A    between atoms: _100  and  _103
REMARK   42  A    between atoms: _103  and  _104
REMARK   43  A    between atoms: _107  and  _109
REMARK   44  A    between atoms: _109  and  _110
REMARK   45  A    between atoms: _113  and  _115
REMARK   46  A    between atoms: _115  and  _116
REMARK   47  A    between atoms: _115  and  _118
REMARK   48  A    between atoms: _118  and  _119
REMARK   49  A    between atoms: _119  and  _235
REMARK   50  A    between atoms: _120  and  _122
REMARK   51  A    between atoms: _122  and  _123
REMARK   52  A    between atoms: _122  and  _125
REMARK   53  A    between atoms: _125  and  _126
REMARK   54  A    between atoms: _126  and  _127
REMARK   55  A    between atoms: _132  and  _134
REMARK   56  A    between atoms: _134  and  _135
REMARK   57  A    between atoms: _137  and  _139
REMARK   58  A    between atoms: _139  and  _140
REMARK   59  A    between atoms: _139  and  _142
REMARK   60  A    between atoms: _142  and  _143
REMARK   61  A    between atoms: _146  and  _148
REMARK   62  A    between atoms: _148  and  _149
REMARK   63  A    between atoms: _148  and  _151
REMARK   64  A    between atoms: _151  and  _152
REMARK   65  A    between atoms: _154  and  _156
REMARK   66  A    between atoms: _156  and  _157
REMARK   67  A    between atoms: _159  and  _161
REMARK   68  A    between atoms: _161  and  _162
REMARK   69  A    between atoms: _164  and  _166
REMARK   70  A    between atoms: _166  and  _167
REMARK   71  A    between atoms: _166  and  _169
REMARK   72  A    between atoms: _169  and  _170
REMARK   73  A    between atoms: _173  and  _175
REMARK   74  A    between atoms: _175  and  _176
REMARK   75  A    between atoms: _175  and  _178
REMARK   76  A    between atoms: _181  and  _183
REMARK   77  A    between atoms: _183  and  _184
REMARK   78  A    between atoms: _183  and  _186
REMARK   79  A    between atoms: _186  and  _187
REMARK   80  A    between atoms: _189  and  _191
REMARK   81  A    between atoms: _191  and  _192
REMARK   82  A    between atoms: _191  and  _194
REMARK   83  A    between atoms: _194  and  _195
REMARK   84  A    between atoms: _205  and  _207
REMARK   85  A    between atoms: _207  and  _208
REMARK   86  A    between atoms: _210  and  _212
REMARK   87  A    between atoms: _212  and  _213
REMARK   88  A    between atoms: _212  and  _215
REMARK   89  A    between atoms: _215  and  _216
REMARK   90  A    between atoms: _221  and  _222
REMARK   91  A    between atoms: _224  and  _226
REMARK   92  A    between atoms: _226  and  _227
REMARK   93  A    between atoms: _229  and  _231
REMARK   94  A    between atoms: _231  and  _232
REMARK   95  A    between atoms: _231  and  _234
REMARK   96  A    between atoms: _234  and  _235
REMARK   97  A    between atoms: _236  and  _238
REMARK   98  A    between atoms: _238  and  _239
REMARK   99  A    between atoms: _242  and  _244
REMARK  100  A    between atoms: _244  and  _245
REMARK  101  A    between atoms: _244  and  _247
REMARK  102  A    between atoms: _247  and  _248
REMARK  103  A    between atoms: _251  and  _253
REMARK  104  A    between atoms: _253  and  _254
REMARK  105  A    between atoms: _253  and  _256
REMARK  106  A    between atoms: _256  and  _257
REMARK  107  A    between atoms: _263  and  _264
REMARK  108  A    between atoms: _269  and  _271
REMARK  109  A    between atoms: _271  and  _272
REMARK  110  A    between atoms: _274  and  _276
REMARK  111  A    between atoms: _276  and  _277
REMARK  112  A    between atoms: _276  and  _279
REMARK  113  A    between atoms: _282  and  _284
REMARK  114  A    between atoms: _284  and  _285
REMARK  115  A    between atoms: _284  and  _287
REMARK  116  A    between atoms: _287  and  _288
REMARK  117  A    between atoms: _293  and  _294
REMARK                            x       y       z     vdW  Elec       q    Type
REMARK                         _______ _______ _______ _____ _____    ______ ____
ROOT
ATOM      1  O   HOH     1       6.894  50.590  59.660  0.00  0.00    +0.000 OA
ENDROOT
TORSDOF 0
REMARK  Name = ../refined-set-2016/1j16/1j16_pocket.pdb
REMARK  117 active torsions:
REMARK  status: ('A' for Active; 'I' for Inactive)
REMARK    1  A    between atoms: _1  and  _5
REMARK    2  A    between atoms: _5  and  _6
REMARK    3  A    between atoms: _5  and  _8
REMARK    4  A    between atoms: _8  and  _9
REMARK    5  A    between atoms: _12  and  _14
REMARK    6  A    between atoms: _14  and  _15
REMARK    7  A    between atoms: _14  and  _17
REMARK    8  A    between atoms: _20  and  _22
REMARK    9  A    between atoms: _22  and  _23
REMARK   10  A    between atoms: _22  and  _25
REMARK   11  A    between atoms: _25  and  _26
REMARK   12  A    between atoms: _31  and  _33
REMARK   13  A    between atoms: _33  and  _34
REMARK   14  A    between atoms: _33  and  _36
REMARK   15  A    between atoms: _36  and  _37
REMARK   16  A    between atoms: _42  and  _43
REMARK   17  A    between atoms: _45  and  _47
REMARK   18  A    between atoms: _47  and  _48
REMARK   19  A    between atoms: _47  and  _50
REMARK   20  A    between atoms: _50  and  _51
REMARK   21  A    between atoms: _54  and  _56
REMARK   22  A    between atoms: _56  and  _57
REMARK   23  A    between atoms: _56  and  _59
REMARK   24  A    between atoms: _59  and  _60
REMARK   25  A    between atoms: _65  and  _67
REMARK   26  A    between atoms: _67  and  _68
REMARK   27  A    between atoms: _67  and  _70
REMARK   28  A    between atoms: _70  and  _71
REMARK   29  A    between atoms: _77  and  _79
REMARK   30  A    between atoms: _79  and  _80
REMARK   31  A    between atoms: _79  and  _82
REMARK   32  A    between atoms: _85  and  _87
REMARK   33  A    between atoms: _87  and  _88
REMARK   34  A    between atoms: _87  and  _90
REMARK   35  A    between atoms: _90  and  _91
REMARK   36  A    between atoms: _91  and  _92
REMARK   37  A    between atoms: _92  and  _93
REMARK   38  A    between atoms: _93  and  _94
REMARK   39  A    between atoms: _98  and  _100
REMARK   40  A    between atoms: _100  and  _101
REMARK   41  A    between atoms: _100  and  _103
REMARK   42  A    between atoms: _103  and  _104
REMARK   43  A    between atoms: _107  and  _109
REMARK   44  A    between atoms: _109  and  _110
REMARK   45  A    between atoms: _113  and  _115
REMARK   46  A    between atoms: _115  and  _116
REMARK   47  A    between atoms: _115  and  _118
REMARK   48  A    between atoms: _118  and  _119
REMARK   49  A    between atoms: _119  and  _235
REMARK   50  A    between atoms: _120  and  _122
REMARK   51  A    between atoms: _122  and  _123
REMARK   52  A    between atoms: _122  and  _125
REMARK   53  A    between atoms: _125  and  _126
REMARK   54  A    between atoms: _126  and  _127
REMARK   55  A    between atoms: _132  and  _134
REMARK   56  A    between atoms: _134  and  _135
REMARK   57  A    between atoms: _137  and  _139
REMARK   58  A    between atoms: _139  and  _140
REMARK   59  A    between atoms: _139  and  _142
REMARK   60  A    between atoms: _142  and  _143
REMARK   61  A    between atoms: _146  and  _148
REMARK   62  A    between atoms: _148  and  _149
REMARK   63  A    between atoms: _148  and  _151
REMARK   64  A    between atoms: _151  and  _152
REMARK   65  A    between atoms: _154  and  _156
REMARK   66  A    between atoms: _156  and  _157
REMARK   67  A    between atoms: _159  and  _161
REMARK   68  A    between atoms: _161  and  _162
REMARK   69  A    between atoms: _164  and  _166
REMARK   70  A    between atoms: _166  and  _167
REMARK   71  A    between atoms: _166  and  _169
REMARK   72  A    between atoms: _169  and  _170
REMARK   73  A    between atoms: _173  and  _175
REMARK   74  A    between atoms: _175  and  _176
REMARK   75  A    between atoms: _175  and  _178
REMARK   76  A    between atoms: _181  and  _183
REMARK   77  A    between atoms: _183  and  _184
REMARK   78  A    between atoms: _183  and  _186
REMARK   79  A    between atoms: _186  and  _187
REMARK   80  A    between atoms: _189  and  _191
REMARK   81  A    between atoms: _191  and  _192
REMARK   82  A    between atoms: _191  and  _194
REMARK   83  A    between atoms: _194  and  _195
REMARK   84  A    between atoms: _205  and  _207
REMARK   85  A    between atoms: _207  and  _208
REMARK   86  A    between atoms: _210  and  _212
REMARK   87  A    between atoms: _212  and  _213
REMARK   88  A    between atoms: _212  and  _215
REMARK   89  A    between atoms: _215  and  _216
REMARK   90  A    between atoms: _221  and  _222
REMARK   91  A    between atoms: _224  and  _226
REMARK   92  A    between atoms: _226  and  _227
REMARK   93  A    between atoms: _229  and  _231
REMARK   94  A    between atoms: _231  and  _232
REMARK   95  A    between atoms: _231  and  _234
REMARK   96  A    between atoms: _234  and  _235
REMARK   97  A    between atoms: _236  and  _238
REMARK   98  A    between atoms: _238  and  _239
REMARK   99  A    between atoms: _242  and  _244
REMARK  100  A    between atoms: _244  and  _245
REMARK  101  A    between atoms: _244  and  _247
REMARK  102  A    between atoms: _247  and  _248
REMARK  103  A    between atoms: _251  and  _253
REMARK  104  A    between atoms: _253  and  _254
REMARK  105  A    between atoms: _253  and  _256
REMARK  106  A    between atoms: _256  and  _257
REMARK  107  A    between atoms: _263  and  _264
REMARK  108  A    between atoms: _269  and  _271
REMARK  109  A    between atoms: _271  and  _272
REMARK  110  A    between atoms: _274  and  _276
REMARK  111  A    between atoms: _276  and  _277
REMARK  112  A    between atoms: _276  and  _279
REMARK  113  A    between atoms: _282  and  _284
REMARK  114  A    between atoms: _284  and  _285
REMARK  115  A    between atoms: _284  and  _287
REMARK  116  A    between atoms: _287  and  _288
REMARK  117  A    between atoms: _293  and  _294
REMARK                            x       y       z     vdW  Elec       q    Type
REMARK                         _______ _______ _______ _____ _____    ______ ____
ROOT
ATOM      1  O   HOH     1       8.681  52.270  62.261  0.00  0.00    +0.000 OA
ENDROOT
TORSDOF 0
REMARK  Name = ../refined-set-2016/1j16/1j16_pocket.pdb
REMARK  117 active torsions:
REMARK  status: ('A' for Active; 'I' for Inactive)
REMARK    1  A    between atoms: _1  and  _5
REMARK    2  A    between atoms: _5  and  _6
REMARK    3  A    between atoms: _5  and  _8
REMARK    4  A    between atoms: _8  and  _9
REMARK    5  A    between atoms: _12  and  _14
REMARK    6  A    between atoms: _14  and  _15
REMARK    7  A    between atoms: _14  and  _17
REMARK    8  A    between atoms: _20  and  _22
REMARK    9  A    between atoms: _22  and  _23
REMARK   10  A    between atoms: _22  and  _25
REMARK   11  A    between atoms: _25  and  _26
REMARK   12  A    between atoms: _31  and  _33
REMARK   13  A    between atoms: _33  and  _34
REMARK   14  A    between atoms: _33  and  _36
REMARK   15  A    between atoms: _36  and  _37
REMARK   16  A    between atoms: _42  and  _43
REMARK   17  A    between atoms: _45  and  _47
REMARK   18  A    between atoms: _47  and  _48
REMARK   19  A    between atoms: _47  and  _50
REMARK   20  A    between atoms: _50  and  _51
REMARK   21  A    between atoms: _54  and  _56
REMARK   22  A    between atoms: _56  and  _57
REMARK   23  A    between atoms: _56  and  _59
REMARK   24  A    between atoms: _59  and  _60
REMARK   25  A    between atoms: _65  and  _67
REMARK   26  A    between atoms: _67  and  _68
REMARK   27  A    between atoms: _67  and  _70
REMARK   28  A    between atoms: _70  and  _71
REMARK   29  A    between atoms: _77  and  _79
REMARK   30  A    between atoms: _79  and  _80
REMARK   31  A    between atoms: _79  and  _82
REMARK   32  A    between atoms: _85  and  _87
REMARK   33  A    between atoms: _87  and  _88
REMARK   34  A    between atoms: _87  and  _90
REMARK   35  A    between atoms: _90  and  _91
REMARK   36  A    between atoms: _91  and  _92
REMARK   37  A    between atoms: _92  and  _93
REMARK   38  A    between atoms: _93  and  _94
REMARK   39  A    between atoms: _98  and  _100
REMARK   40  A    between atoms: _100  and  _101
REMARK   41  A    between atoms: _100  and  _103
REMARK   42  A    between atoms: _103  and  _104
REMARK   43  A    between atoms: _107  and  _109
REMARK   44  A    between atoms: _109  and  _110
REMARK   45  A    between atoms: _113  and  _115
REMARK   46  A    between atoms: _115  and  _116
REMARK   47  A    between atoms: _115  and  _118
REMARK   48  A    between atoms: _118  and  _119
REMARK   49  A    between atoms: _119  and  _235
REMARK   50  A    between atoms: _120  and  _122
REMARK   51  A    between atoms: _122  and  _123
REMARK   52  A    between atoms: _122  and  _125
REMARK   53  A    between atoms: _125  and  _126
REMARK   54  A    between atoms: _126  and  _127
REMARK   55  A    between atoms: _132  and  _134
REMARK   56  A    between atoms: _134  and  _135
REMARK   57  A    between atoms: _137  and  _139
REMARK   58  A    between atoms: _139  and  _140
REMARK   59  A    between atoms: _139  and  _142
REMARK   60  A    between atoms: _142  and  _143
REMARK   61  A    between atoms: _146  and  _148
REMARK   62  A    between atoms: _148  and  _149
REMARK   63  A    between atoms: _148  and  _151
REMARK   64  A    between atoms: _151  and  _152
REMARK   65  A    between atoms: _154  and  _156
REMARK   66  A    between atoms: _156  and  _157
REMARK   67  A    between atoms: _159  and  _161
REMARK   68  A    between atoms: _161  and  _162
REMARK   69  A    between atoms: _164  and  _166
REMARK   70  A    between atoms: _166  and  _167
REMARK   71  A    between atoms: _166  and  _169
REMARK   72  A    between atoms: _169  and  _170
REMARK   73  A    between atoms: _173  and  _175
REMARK   74  A    between atoms: _175  and  _176
REMARK   75  A    between atoms: _175  and  _178
REMARK   76  A    between atoms: _181  and  _183
REMARK   77  A    between atoms: _183  and  _184
REMARK   78  A    between atoms: _183  and  _186
REMARK   79  A    between atoms: _186  and  _187
REMARK   80  A    between atoms: _189  and  _191
REMARK   81  A    between atoms: _191  and  _192
REMARK   82  A    between atoms: _191  and  _194
REMARK   83  A    between atoms: _194  and  _195
REMARK   84  A    between atoms: _205  and  _207
REMARK   85  A    between atoms: _207  and  _208
REMARK   86  A    between atoms: _210  and  _212
REMARK   87  A    between atoms: _212  and  _213
REMARK   88  A    between atoms: _212  and  _215
REMARK   89  A    between atoms: _215  and  _216
REMARK   90  A    between atoms: _221  and  _222
REMARK   91  A    between atoms: _224  and  _226
REMARK   92  A    between atoms: _226  and  _227
REMARK   93  A    between atoms: _229  and  _231
REMARK   94  A    between atoms: _231  and  _232
REMARK   95  A    between atoms: _231  and  _234
REMARK   96  A    between atoms: _234  and  _235
REMARK   97  A    between atoms: _236  and  _238
REMARK   98  A    between atoms: _238  and  _239
REMARK   99  A    between atoms: _242  and  _244
REMARK  100  A    between atoms: _244  and  _245
REMARK  101  A    between atoms: _244  and  _247
REMARK  102  A    between atoms: _247  and  _248
REMARK  103  A    between atoms: _251  and  _253
REMARK  104  A    between atoms: _253  and  _254
REMARK  105  A    between atoms: _253  and  _256
REMARK  106  A    between atoms: _256  and  _257
REMARK  107  A    between atoms: _263  and  _264
REMARK  108  A    between atoms: _269  and  _271
REMARK  109  A    between atoms: _271  and  _272
REMARK  110  A    between atoms: _274  and  _276
REMARK  111  A    between atoms: _276  and  _277
REMARK  112  A    between atoms: _276  and  _279
REMARK  113  A    between atoms: _282  and  _284
REMARK  114  A    between atoms: _284  and  _285
REMARK  115  A    between atoms: _284  and  _287
REMARK  116  A    between atoms: _287  and  _288
REMARK  117  A    between atoms: _293  and  _294
REMARK                            x       y       z     vdW  Elec       q    Type
REMARK                         _______ _______ _______ _____ _____    ______ ____
ROOT
ATOM      1  O   HOH     1       6.044  57.423  52.806  0.00  0.00    +0.000 OA
ENDROOT
TORSDOF 0
REMARK  Name = ../refined-set-2016/1j16/1j16_pocket.pdb
REMARK  117 active torsions:
REMARK  status: ('A' for Active; 'I' for Inactive)
REMARK    1  A    between atoms: _1  and  _5
REMARK    2  A    between atoms: _5  and  _6
REMARK    3  A    between atoms: _5  and  _8
REMARK    4  A    between atoms: _8  and  _9
REMARK    5  A    between atoms: _12  and  _14
REMARK    6  A    between atoms: _14  and  _15
REMARK    7  A    between atoms: _14  and  _17
REMARK    8  A    between atoms: _20  and  _22
REMARK    9  A    between atoms: _22  and  _23
REMARK   10  A    between atoms: _22  and  _25
REMARK   11  A    between atoms: _25  and  _26
REMARK   12  A    between atoms: _31  and  _33
REMARK   13  A    between atoms: _33  and  _34
REMARK   14  A    between atoms: _33  and  _36
REMARK   15  A    between atoms: _36  and  _37
REMARK   16  A    between atoms: _42  and  _43
REMARK   17  A    between atoms: _45  and  _47
REMARK   18  A    between atoms: _47  and  _48
REMARK   19  A    between atoms: _47  and  _50
REMARK   20  A    between atoms: _50  and  _51
REMARK   21  A    between atoms: _54  and  _56
REMARK   22  A    between atoms: _56  and  _57
REMARK   23  A    between atoms: _56  and  _59
REMARK   24  A    between atoms: _59  and  _60
REMARK   25  A    between atoms: _65  and  _67
REMARK   26  A    between atoms: _67  and  _68
REMARK   27  A    between atoms: _67  and  _70
REMARK   28  A    between atoms: _70  and  _71
REMARK   29  A    between atoms: _77  and  _79
REMARK   30  A    between atoms: _79  and  _80
REMARK   31  A    between atoms: _79  and  _82
REMARK   32  A    between atoms: _85  and  _87
REMARK   33  A    between atoms: _87  and  _88
REMARK   34  A    between atoms: _87  and  _90
REMARK   35  A    between atoms: _90  and  _91
REMARK   36  A    between atoms: _91  and  _92
REMARK   37  A    between atoms: _92  and  _93
REMARK   38  A    between atoms: _93  and  _94
REMARK   39  A    between atoms: _98  and  _100
REMARK   40  A    between atoms: _100  and  _101
REMARK   41  A    between atoms: _100  and  _103
REMARK   42  A    between atoms: _103  and  _104
REMARK   43  A    between atoms: _107  and  _109
REMARK   44  A    between atoms: _109  and  _110
REMARK   45  A    between atoms: _113  and  _115
REMARK   46  A    between atoms: _115  and  _116
REMARK   47  A    between atoms: _115  and  _118
REMARK   48  A    between atoms: _118  and  _119
REMARK   49  A    between atoms: _119  and  _235
REMARK   50  A    between atoms: _120  and  _122
REMARK   51  A    between atoms: _122  and  _123
REMARK   52  A    between atoms: _122  and  _125
REMARK   53  A    between atoms: _125  and  _126
REMARK   54  A    between atoms: _126  and  _127
REMARK   55  A    between atoms: _132  and  _134
REMARK   56  A    between atoms: _134  and  _135
REMARK   57  A    between atoms: _137  and  _139
REMARK   58  A    between atoms: _139  and  _140
REMARK   59  A    between atoms: _139  and  _142
REMARK   60  A    between atoms: _142  and  _143
REMARK   61  A    between atoms: _146  and  _148
REMARK   62  A    between atoms: _148  and  _149
REMARK   63  A    between atoms: _148  and  _151
REMARK   64  A    between atoms: _151  and  _152
REMARK   65  A    between atoms: _154  and  _156
REMARK   66  A    between atoms: _156  and  _157
REMARK   67  A    between atoms: _159  and  _161
REMARK   68  A    between atoms: _161  and  _162
REMARK   69  A    between atoms: _164  and  _166
REMARK   70  A    between atoms: _166  and  _167
REMARK   71  A    between atoms: _166  and  _169
REMARK   72  A    between atoms: _169  and  _170
REMARK   73  A    between atoms: _173  and  _175
REMARK   74  A    between atoms: _175  and  _176
REMARK   75  A    between atoms: _175  and  _178
REMARK   76  A    between atoms: _181  and  _183
REMARK   77  A    between atoms: _183  and  _184
REMARK   78  A    between atoms: _183  and  _186
REMARK   79  A    between atoms: _186  and  _187
REMARK   80  A    between atoms: _189  and  _191
REMARK   81  A    between atoms: _191  and  _192
REMARK   82  A    between atoms: _191  and  _194
REMARK   83  A    between atoms: _194  and  _195
REMARK   84  A    between atoms: _205  and  _207
REMARK   85  A    between atoms: _207  and  _208
REMARK   86  A    between atoms: _210  and  _212
REMARK   87  A    between atoms: _212  and  _213
REMARK   88  A    between atoms: _212  and  _215
REMARK   89  A    between atoms: _215  and  _216
REMARK   90  A    between atoms: _221  and  _222
REMARK   91  A    between atoms: _224  and  _226
REMARK   92  A    between atoms: _226  and  _227
REMARK   93  A    between atoms: _229  and  _231
REMARK   94  A    between atoms: _231  and  _232
REMARK   95  A    between atoms: _231  and  _234
REMARK   96  A    between atoms: _234  and  _235
REMARK   97  A    between atoms: _236  and  _238
REMARK   98  A    between atoms: _238  and  _239
REMARK   99  A    between atoms: _242  and  _244
REMARK  100  A    between atoms: _244  and  _245
REMARK  101  A    between atoms: _244  and  _247
REMARK  102  A    between atoms: _247  and  _248
REMARK  103  A    between atoms: _251  and  _253
REMARK  104  A    between atoms: _253  and  _254
REMARK  105  A    between atoms: _253  and  _256
REMARK  106  A    between atoms: _256  and  _257
REMARK  107  A    between atoms: _263  and  _264
REMARK  108  A    between atoms: _269  and  _271
REMARK  109  A    between atoms: _271  and  _272
REMARK  110  A    between atoms: _274  and  _276
REMARK  111  A    between atoms: _276  and  _277
REMARK  112  A    between atoms: _276  and  _279
REMARK  113  A    between atoms: _282  and  _284
REMARK  114  A    between atoms: _284  and  _285
REMARK  115  A    between atoms: _284  and  _287
REMARK  116  A    between atoms: _287  and  _288
REMARK  117  A    between atoms: _293  and  _294
REMARK                            x       y       z     vdW  Elec       q    Type
REMARK                         _______ _______ _______ _____ _____    ______ ____
ROOT
ATOM      1  O   HOH     1       7.357  59.725  52.791  0.00  0.00    +0.000 OA
ENDROOT
TORSDOF 0
REMARK  Name = ../refined-set-2016/1j16/1j16_pocket.pdb
REMARK  117 active torsions:
REMARK  status: ('A' for Active; 'I' for Inactive)
REMARK    1  A    between atoms: _1  and  _5
REMARK    2  A    between atoms: _5  and  _6
REMARK    3  A    between atoms: _5  and  _8
REMARK    4  A    between atoms: _8  and  _9
REMARK    5  A    between atoms: _12  and  _14
REMARK    6  A    between atoms: _14  and  _15
REMARK    7  A    between atoms: _14  and  _17
REMARK    8  A    between atoms: _20  and  _22
REMARK    9  A    between atoms: _22  and  _23
REMARK   10  A    between atoms: _22  and  _25
REMARK   11  A    between atoms: _25  and  _26
REMARK   12  A    between atoms: _31  and  _33
REMARK   13  A    between atoms: _33  and  _34
REMARK   14  A    between atoms: _33  and  _36
REMARK   15  A    between atoms: _36  and  _37
REMARK   16  A    between atoms: _42  and  _43
REMARK   17  A    between atoms: _45  and  _47
REMARK   18  A    between atoms: _47  and  _48
REMARK   19  A    between atoms: _47  and  _50
REMARK   20  A    between atoms: _50  and  _51
REMARK   21  A    between atoms: _54  and  _56
REMARK   22  A    between atoms: _56  and  _57
REMARK   23  A    between atoms: _56  and  _59
REMARK   24  A    between atoms: _59  and  _60
REMARK   25  A    between atoms: _65  and  _67
REMARK   26  A    between atoms: _67  and  _68
REMARK   27  A    between atoms: _67  and  _70
REMARK   28  A    between atoms: _70  and  _71
REMARK   29  A    between atoms: _77  and  _79
REMARK   30  A    between atoms: _79  and  _80
REMARK   31  A    between atoms: _79  and  _82
REMARK   32  A    between atoms: _85  and  _87
REMARK   33  A    between atoms: _87  and  _88
REMARK   34  A    between atoms: _87  and  _90
REMARK   35  A    between atoms: _90  and  _91
REMARK   36  A    between atoms: _91  and  _92
REMARK   37  A    between atoms: _92  and  _93
REMARK   38  A    between atoms: _93  and  _94
REMARK   39  A    between atoms: _98  and  _100
REMARK   40  A    between atoms: _100  and  _101
REMARK   41  A    between atoms: _100  and  _103
REMARK   42  A    between atoms: _103  and  _104
REMARK   43  A    between atoms: _107  and  _109
REMARK   44  A    between atoms: _109  and  _110
REMARK   45  A    between atoms: _113  and  _115
REMARK   46  A    between atoms: _115  and  _116
REMARK   47  A    between atoms: _115  and  _118
REMARK   48  A    between atoms: _118  and  _119
REMARK   49  A    between atoms: _119  and  _235
REMARK   50  A    between atoms: _120  and  _122
REMARK   51  A    between atoms: _122  and  _123
REMARK   52  A    between atoms: _122  and  _125
REMARK   53  A    between atoms: _125  and  _126
REMARK   54  A    between atoms: _126  and  _127
REMARK   55  A    between atoms: _132  and  _134
REMARK   56  A    between atoms: _134  and  _135
REMARK   57  A    between atoms: _137  and  _139
REMARK   58  A    between atoms: _139  and  _140
REMARK   59  A    between atoms: _139  and  _142
REMARK   60  A    between atoms: _142  and  _143
REMARK   61  A    between atoms: _146  and  _148
REMARK   62  A    between atoms: _148  and  _149
REMARK   63  A    between atoms: _148  and  _151
REMARK   64  A    between atoms: _151  and  _152
REMARK   65  A    between atoms: _154  and  _156
REMARK   66  A    between atoms: _156  and  _157
REMARK   67  A    between atoms: _159  and  _161
REMARK   68  A    between atoms: _161  and  _162
REMARK   69  A    between atoms: _164  and  _166
REMARK   70  A    between atoms: _166  and  _167
REMARK   71  A    between atoms: _166  and  _169
REMARK   72  A    between atoms: _169  and  _170
REMARK   73  A    between atoms: _173  and  _175
REMARK   74  A    between atoms: _175  and  _176
REMARK   75  A    between atoms: _175  and  _178
REMARK   76  A    between atoms: _181  and  _183
REMARK   77  A    between atoms: _183  and  _184
REMARK   78  A    between atoms: _183  and  _186
REMARK   79  A    between atoms: _186  and  _187
REMARK   80  A    between atoms: _189  and  _191
REMARK   81  A    between atoms: _191  and  _192
REMARK   82  A    between atoms: _191  and  _194
REMARK   83  A    between atoms: _194  and  _195
REMARK   84  A    between atoms: _205  and  _207
REMARK   85  A    between atoms: _207  and  _208
REMARK   86  A    between atoms: _210  and  _212
REMARK   87  A    between atoms: _212  and  _213
REMARK   88  A    between atoms: _212  and  _215
REMARK   89  A    between atoms: _215  and  _216
REMARK   90  A    between atoms: _221  and  _222
REMARK   91  A    between atoms: _224  and  _226
REMARK   92  A    between atoms: _226  and  _227
REMARK   93  A    between atoms: _229  and  _231
REMARK   94  A    between atoms: _231  and  _232
REMARK   95  A    between atoms: _231  and  _234
REMARK   96  A    between atoms: _234  and  _235
REMARK   97  A    between atoms: _236  and  _238
REMARK   98  A    between atoms: _238  and  _239
REMARK   99  A    between atoms: _242  and  _244
REMARK  100  A    between atoms: _244  and  _245
REMARK  101  A    between atoms: _244  and  _247
REMARK  102  A    between atoms: _247  and  _248
REMARK  103  A    between atoms: _251  and  _253
REMARK  104  A    between atoms: _253  and  _254
REMARK  105  A    between atoms: _253  and  _256
REMARK  106  A    between atoms: _256  and  _257
REMARK  107  A    between atoms: _263  and  _264
REMARK  108  A    between atoms: _269  and  _271
REMARK  109  A    between atoms: _271  and  _272
REMARK  110  A    between atoms: _274  and  _276
REMARK  111  A    between atoms: _276  and  _277
REMARK  112  A    between atoms: _276  and  _279
REMARK  113  A    between atoms: _282  and  _284
REMARK  114  A    between atoms: _284  and  _285
REMARK  115  A    between atoms: _284  and  _287
REMARK  116  A    between atoms: _287  and  _288
REMARK  117  A    between atoms: _293  and  _294
REMARK                            x       y       z     vdW  Elec       q    Type
REMARK                         _______ _______ _______ _____ _____    ______ ____
ROOT
ATOM      1  O   HOH     1       4.386  40.446  57.565  0.00  0.00    +0.000 OA
ENDROOT
TORSDOF 0
REMARK  Name = ../refined-set-2016/1j16/1j16_pocket.pdb
REMARK  117 active torsions:
REMARK  status: ('A' for Active; 'I' for Inactive)
REMARK    1  A    between atoms: _1  and  _5
REMARK    2  A    between atoms: _5  and  _6
REMARK    3  A    between atoms: _5  and  _8
REMARK    4  A    between atoms: _8  and  _9
REMARK    5  A    between atoms: _12  and  _14
REMARK    6  A    between atoms: _14  and  _15
REMARK    7  A    between atoms: _14  and  _17
REMARK    8  A    between atoms: _20  and  _22
REMARK    9  A    between atoms: _22  and  _23
REMARK   10  A    between atoms: _22  and  _25
REMARK   11  A    between atoms: _25  and  _26
REMARK   12  A    between atoms: _31  and  _33
REMARK   13  A    between atoms: _33  and  _34
REMARK   14  A    between atoms: _33  and  _36
REMARK   15  A    between atoms: _36  and  _37
REMARK   16  A    between atoms: _42  and  _43
REMARK   17  A    between atoms: _45  and  _47
REMARK   18  A    between atoms: _47  and  _48
REMARK   19  A    between atoms: _47  and  _50
REMARK   20  A    between atoms: _50  and  _51
REMARK   21  A    between atoms: _54  and  _56
REMARK   22  A    between atoms: _56  and  _57
REMARK   23  A    between atoms: _56  and  _59
REMARK   24  A    between atoms: _59  and  _60
REMARK   25  A    between atoms: _65  and  _67
REMARK   26  A    between atoms: _67  and  _68
REMARK   27  A    between atoms: _67  and  _70
REMARK   28  A    between atoms: _70  and  _71
REMARK   29  A    between atoms: _77  and  _79
REMARK   30  A    between atoms: _79  and  _80
REMARK   31  A    between atoms: _79  and  _82
REMARK   32  A    between atoms: _85  and  _87
REMARK   33  A    between atoms: _87  and  _88
REMARK   34  A    between atoms: _87  and  _90
REMARK   35  A    between atoms: _90  and  _91
REMARK   36  A    between atoms: _91  and  _92
REMARK   37  A    between atoms: _92  and  _93
REMARK   38  A    between atoms: _93  and  _94
REMARK   39  A    between atoms: _98  and  _100
REMARK   40  A    between atoms: _100  and  _101
REMARK   41  A    between atoms: _100  and  _103
REMARK   42  A    between atoms: _103  and  _104
REMARK   43  A    between atoms: _107  and  _109
REMARK   44  A    between atoms: _109  and  _110
REMARK   45  A    between atoms: _113  and  _115
REMARK   46  A    between atoms: _115  and  _116
REMARK   47  A    between atoms: _115  and  _118
REMARK   48  A    between atoms: _118  and  _119
REMARK   49  A    between atoms: _119  and  _235
REMARK   50  A    between atoms: _120  and  _122
REMARK   51  A    between atoms: _122  and  _123
REMARK   52  A    between atoms: _122  and  _125
REMARK   53  A    between atoms: _125  and  _126
REMARK   54  A    between atoms: _126  and  _127
REMARK   55  A    between atoms: _132  and  _134
REMARK   56  A    between atoms: _134  and  _135
REMARK   57  A    between atoms: _137  and  _139
REMARK   58  A    between atoms: _139  and  _140
REMARK   59  A    between atoms: _139  and  _142
REMARK   60  A    between atoms: _142  and  _143
REMARK   61  A    between atoms: _146  and  _148
REMARK   62  A    between atoms: _148  and  _149
REMARK   63  A    between atoms: _148  and  _151
REMARK   64  A    between atoms: _151  and  _152
REMARK   65  A    between atoms: _154  and  _156
REMARK   66  A    between atoms: _156  and  _157
REMARK   67  A    between atoms: _159  and  _161
REMARK   68  A    between atoms: _161  and  _162
REMARK   69  A    between atoms: _164  and  _166
REMARK   70  A    between atoms: _166  and  _167
REMARK   71  A    between atoms: _166  and  _169
REMARK   72  A    between atoms: _169  and  _170
REMARK   73  A    between atoms: _173  and  _175
REMARK   74  A    between atoms: _175  and  _176
REMARK   75  A    between atoms: _175  and  _178
REMARK   76  A    between atoms: _181  and  _183
REMARK   77  A    between atoms: _183  and  _184
REMARK   78  A    between atoms: _183  and  _186
REMARK   79  A    between atoms: _186  and  _187
REMARK   80  A    between atoms: _189  and  _191
REMARK   81  A    between atoms: _191  and  _192
REMARK   82  A    between atoms: _191  and  _194
REMARK   83  A    between atoms: _194  and  _195
REMARK   84  A    between atoms: _205  and  _207
REMARK   85  A    between atoms: _207  and  _208
REMARK   86  A    between atoms: _210  and  _212
REMARK   87  A    between atoms: _212  and  _213
REMARK   88  A    between atoms: _212  and  _215
REMARK   89  A    between atoms: _215  and  _216
REMARK   90  A    between atoms: _221  and  _222
REMARK   91  A    between atoms: _224  and  _226
REMARK   92  A    between atoms: _226  and  _227
REMARK   93  A    between atoms: _229  and  _231
REMARK   94  A    between atoms: _231  and  _232
REMARK   95  A    between atoms: _231  and  _234
REMARK   96  A    between atoms: _234  and  _235
REMARK   97  A    between atoms: _236  and  _238
REMARK   98  A    between atoms: _238  and  _239
REMARK   99  A    between atoms: _242  and  _244
REMARK  100  A    between atoms: _244  and  _245
REMARK  101  A    between atoms: _244  and  _247
REMARK  102  A    between atoms: _247  and  _248
REMARK  103  A    between atoms: _251  and  _253
REMARK  104  A    between atoms: _253  and  _254
REMARK  105  A    between atoms: _253  and  _256
REMARK  106  A    between atoms: _256  and  _257
REMARK  107  A    between atoms: _263  and  _264
REMARK  108  A    between atoms: _269  and  _271
REMARK  109  A    between atoms: _271  and  _272
REMARK  110  A    between atoms: _274  and  _276
REMARK  111  A    between atoms: _276  and  _277
REMARK  112  A    between atoms: _276  and  _279
REMARK  113  A    between atoms: _282  and  _284
REMARK  114  A    between atoms: _284  and  _285
REMARK  115  A    between atoms: _284  and  _287
REMARK  116  A    between atoms: _287  and  _288
REMARK  117  A    between atoms: _293  and  _294
REMARK                            x       y       z     vdW  Elec       q    Type
REMARK                         _______ _______ _______ _____ _____    ______ ____
ROOT
ATOM      1  O   HOH     1       1.260  43.892  59.165  0.00  0.00    +0.000 OA
ENDROOT
TORSDOF 0
REMARK  Name = ../refined-set-2016/1j16/1j16_pocket.pdb
REMARK  117 active torsions:
REMARK  status: ('A' for Active; 'I' for Inactive)
REMARK    1  A    between atoms: _1  and  _5
REMARK    2  A    between atoms: _5  and  _6
REMARK    3  A    between atoms: _5  and  _8
REMARK    4  A    between atoms: _8  and  _9
REMARK    5  A    between atoms: _12  and  _14
REMARK    6  A    between atoms: _14  and  _15
REMARK    7  A    between atoms: _14  and  _17
REMARK    8  A    between atoms: _20  and  _22
REMARK    9  A    between atoms: _22  and  _23
REMARK   10  A    between atoms: _22  and  _25
REMARK   11  A    between atoms: _25  and  _26
REMARK   12  A    between atoms: _31  and  _33
REMARK   13  A    between atoms: _33  and  _34
REMARK   14  A    between atoms: _33  and  _36
REMARK   15  A    between atoms: _36  and  _37
REMARK   16  A    between atoms: _42  and  _43
REMARK   17  A    between atoms: _45  and  _47
REMARK   18  A    between atoms: _47  and  _48
REMARK   19  A    between atoms: _47  and  _50
REMARK   20  A    between atoms: _50  and  _51
REMARK   21  A    between atoms: _54  and  _56
REMARK   22  A    between atoms: _56  and  _57
REMARK   23  A    between atoms: _56  and  _59
REMARK   24  A    between atoms: _59  and  _60
REMARK   25  A    between atoms: _65  and  _67
REMARK   26  A    between atoms: _67  and  _68
REMARK   27  A    between atoms: _67  and  _70
REMARK   28  A    between atoms: _70  and  _71
REMARK   29  A    between atoms: _77  and  _79
REMARK   30  A    between atoms: _79  and  _80
REMARK   31  A    between atoms: _79  and  _82
REMARK   32  A    between atoms: _85  and  _87
REMARK   33  A    between atoms: _87  and  _88
REMARK   34  A    between atoms: _87  and  _90
REMARK   35  A    between atoms: _90  and  _91
REMARK   36  A    between atoms: _91  and  _92
REMARK   37  A    between atoms: _92  and  _93
REMARK   38  A    between atoms: _93  and  _94
REMARK   39  A    between atoms: _98  and  _100
REMARK   40  A    between atoms: _100  and  _101
REMARK   41  A    between atoms: _100  and  _103
REMARK   42  A    between atoms: _103  and  _104
REMARK   43  A    between atoms: _107  and  _109
REMARK   44  A    between atoms: _109  and  _110
REMARK   45  A    between atoms: _113  and  _115
REMARK   46  A    between atoms: _115  and  _116
REMARK   47  A    between atoms: _115  and  _118
REMARK   48  A    between atoms: _118  and  _119
REMARK   49  A    between atoms: _119  and  _235
REMARK   50  A    between atoms: _120  and  _122
REMARK   51  A    between atoms: _122  and  _123
REMARK   52  A    between atoms: _122  and  _125
REMARK   53  A    between atoms: _125  and  _126
REMARK   54  A    between atoms: _126  and  _127
REMARK   55  A    between atoms: _132  and  _134
REMARK   56  A    between atoms: _134  and  _135
REMARK   57  A    between atoms: _137  and  _139
REMARK   58  A    between atoms: _139  and  _140
REMARK   59  A    between atoms: _139  and  _142
REMARK   60  A    between atoms: _142  and  _143
REMARK   61  A    between atoms: _146  and  _148
REMARK   62  A    between atoms: _148  and  _149
REMARK   63  A    between atoms: _148  and  _151
REMARK   64  A    between atoms: _151  and  _152
REMARK   65  A    between atoms: _154  and  _156
REMARK   66  A    between atoms: _156  and  _157
REMARK   67  A    between atoms: _159  and  _161
REMARK   68  A    between atoms: _161  and  _162
REMARK   69  A    between atoms: _164  and  _166
REMARK   70  A    between atoms: _166  and  _167
REMARK   71  A    between atoms: _166  and  _169
REMARK   72  A    between atoms: _169  and  _170
REMARK   73  A    between atoms: _173  and  _175
REMARK   74  A    between atoms: _175  and  _176
REMARK   75  A    between atoms: _175  and  _178
REMARK   76  A    between atoms: _181  and  _183
REMARK   77  A    between atoms: _183  and  _184
REMARK   78  A    between atoms: _183  and  _186
REMARK   79  A    between atoms: _186  and  _187
REMARK   80  A    between atoms: _189  and  _191
REMARK   81  A    between atoms: _191  and  _192
REMARK   82  A    between atoms: _191  and  _194
REMARK   83  A    between atoms: _194  and  _195
REMARK   84  A    between atoms: _205  and  _207
REMARK   85  A    between atoms: _207  and  _208
REMARK   86  A    between atoms: _210  and  _212
REMARK   87  A    between atoms: _212  and  _213
REMARK   88  A    between atoms: _212  and  _215
REMARK   89  A    between atoms: _215  and  _216
REMARK   90  A    between atoms: _221  and  _222
REMARK   91  A    between atoms: _224  and  _226
REMARK   92  A    between atoms: _226  and  _227
REMARK   93  A    between atoms: _229  and  _231
REMARK   94  A    between atoms: _231  and  _232
REMARK   95  A    between atoms: _231  and  _234
REMARK   96  A    between atoms: _234  and  _235
REMARK   97  A    between atoms: _236  and  _238
REMARK   98  A    between atoms: _238  and  _239
REMARK   99  A    between atoms: _242  and  _244
REMARK  100  A    between atoms: _244  and  _245
REMARK  101  A    between atoms: _244  and  _247
REMARK  102  A    between atoms: _247  and  _248
REMARK  103  A    between atoms: _251  and  _253
REMARK  104  A    between atoms: _253  and  _254
REMARK  105  A    between atoms: _253  and  _256
REMARK  106  A    between atoms: _256  and  _257
REMARK  107  A    between atoms: _263  and  _264
REMARK  108  A    between atoms: _269  and  _271
REMARK  109  A    between atoms: _271  and  _272
REMARK  110  A    between atoms: _274  and  _276
REMARK  111  A    between atoms: _276  and  _277
REMARK  112  A    between atoms: _276  and  _279
REMARK  113  A    between atoms: _282  and  _284
REMARK  114  A    between atoms: _284  and  _285
REMARK  115  A    between atoms: _284  and  _287
REMARK  116  A    between atoms: _287  and  _288
REMARK  117  A    between atoms: _293  and  _294
REMARK                            x       y       z     vdW  Elec       q    Type
REMARK                         _______ _______ _______ _____ _____    ______ ____
ROOT
ATOM      1  O   HOH     1       8.457  39.543  58.327  0.00  0.00    +0.000 OA
ENDROOT
TORSDOF 0
REMARK  Name = ../refined-set-2016/1j16/1j16_pocket.pdb
REMARK  117 active torsions:
REMARK  status: ('A' for Active; 'I' for Inactive)
REMARK    1  A    between atoms: _1  and  _5
REMARK    2  A    between atoms: _5  and  _6
REMARK    3  A    between atoms: _5  and  _8
REMARK    4  A    between atoms: _8  and  _9
REMARK    5  A    between atoms: _12  and  _14
REMARK    6  A    between atoms: _14  and  _15
REMARK    7  A    between atoms: _14  and  _17
REMARK    8  A    between atoms: _20  and  _22
REMARK    9  A    between atoms: _22  and  _23
REMARK   10  A    between atoms: _22  and  _25
REMARK   11  A    between atoms: _25  and  _26
REMARK   12  A    between atoms: _31  and  _33
REMARK   13  A    between atoms: _33  and  _34
REMARK   14  A    between atoms: _33  and  _36
REMARK   15  A    between atoms: _36  and  _37
REMARK   16  A    between atoms: _42  and  _43
REMARK   17  A    between atoms: _45  and  _47
REMARK   18  A    between atoms: _47  and  _48
REMARK   19  A    between atoms: _47  and  _50
REMARK   20  A    between atoms: _50  and  _51
REMARK   21  A    between atoms: _54  and  _56
REMARK   22  A    between atoms: _56  and  _57
REMARK   23  A    between atoms: _56  and  _59
REMARK   24  A    between atoms: _59  and  _60
REMARK   25  A    between atoms: _65  and  _67
REMARK   26  A    between atoms: _67  and  _68
REMARK   27  A    between atoms: _67  and  _70
REMARK   28  A    between atoms: _70  and  _71
REMARK   29  A    between atoms: _77  and  _79
REMARK   30  A    between atoms: _79  and  _80
REMARK   31  A    between atoms: _79  and  _82
REMARK   32  A    between atoms: _85  and  _87
REMARK   33  A    between atoms: _87  and  _88
REMARK   34  A    between atoms: _87  and  _90
REMARK   35  A    between atoms: _90  and  _91
REMARK   36  A    between atoms: _91  and  _92
REMARK   37  A    between atoms: _92  and  _93
REMARK   38  A    between atoms: _93  and  _94
REMARK   39  A    between atoms: _98  and  _100
REMARK   40  A    between atoms: _100  and  _101
REMARK   41  A    between atoms: _100  and  _103
REMARK   42  A    between atoms: _103  and  _104
REMARK   43  A    between atoms: _107  and  _109
REMARK   44  A    between atoms: _109  and  _110
REMARK   45  A    between atoms: _113  and  _115
REMARK   46  A    between atoms: _115  and  _116
REMARK   47  A    between atoms: _115  and  _118
REMARK   48  A    between atoms: _118  and  _119
REMARK   49  A    between atoms: _119  and  _235
REMARK   50  A    between atoms: _120  and  _122
REMARK   51  A    between atoms: _122  and  _123
REMARK   52  A    between atoms: _122  and  _125
REMARK   53  A    between atoms: _125  and  _126
REMARK   54  A    between atoms: _126  and  _127
REMARK   55  A    between atoms: _132  and  _134
REMARK   56  A    between atoms: _134  and  _135
REMARK   57  A    between atoms: _137  and  _139
REMARK   58  A    between atoms: _139  and  _140
REMARK   59  A    between atoms: _139  and  _142
REMARK   60  A    between atoms: _142  and  _143
REMARK   61  A    between atoms: _146  and  _148
REMARK   62  A    between atoms: _148  and  _149
REMARK   63  A    between atoms: _148  and  _151
REMARK   64  A    between atoms: _151  and  _152
REMARK   65  A    between atoms: _154  and  _156
REMARK   66  A    between atoms: _156  and  _157
REMARK   67  A    between atoms: _159  and  _161
REMARK   68  A    between atoms: _161  and  _162
REMARK   69  A    between atoms: _164  and  _166
REMARK   70  A    between atoms: _166  and  _167
REMARK   71  A    between atoms: _166  and  _169
REMARK   72  A    between atoms: _169  and  _170
REMARK   73  A    between atoms: _173  and  _175
REMARK   74  A    between atoms: _175  and  _176
REMARK   75  A    between atoms: _175  and  _178
REMARK   76  A    between atoms: _181  and  _183
REMARK   77  A    between atoms: _183  and  _184
REMARK   78  A    between atoms: _183  and  _186
REMARK   79  A    between atoms: _186  and  _187
REMARK   80  A    between atoms: _189  and  _191
REMARK   81  A    between atoms: _191  and  _192
REMARK   82  A    between atoms: _191  and  _194
REMARK   83  A    between atoms: _194  and  _195
REMARK   84  A    between atoms: _205  and  _207
REMARK   85  A    between atoms: _207  and  _208
REMARK   86  A    between atoms: _210  and  _212
REMARK   87  A    between atoms: _212  and  _213
REMARK   88  A    between atoms: _212  and  _215
REMARK   89  A    between atoms: _215  and  _216
REMARK   90  A    between atoms: _221  and  _222
REMARK   91  A    between atoms: _224  and  _226
REMARK   92  A    between atoms: _226  and  _227
REMARK   93  A    between atoms: _229  and  _231
REMARK   94  A    between atoms: _231  and  _232
REMARK   95  A    between atoms: _231  and  _234
REMARK   96  A    between atoms: _234  and  _235
REMARK   97  A    between atoms: _236  and  _238
REMARK   98  A    between atoms: _238  and  _239
REMARK   99  A    between atoms: _242  and  _244
REMARK  100  A    between atoms: _244  and  _245
REMARK  101  A    between atoms: _244  and  _247
REMARK  102  A    between atoms: _247  and  _248
REMARK  103  A    between atoms: _251  and  _253
REMARK  104  A    between atoms: _253  and  _254
REMARK  105  A    between atoms: _253  and  _256
REMARK  106  A    between atoms: _256  and  _257
REMARK  107  A    between atoms: _263  and  _264
REMARK  108  A    between atoms: _269  and  _271
REMARK  109  A    between atoms: _271  and  _272
REMARK  110  A    between atoms: _274  and  _276
REMARK  111  A    between atoms: _276  and  _277
REMARK  112  A    between atoms: _276  and  _279
REMARK  113  A    between atoms: _282  and  _284
REMARK  114  A    between atoms: _284  and  _285
REMARK  115  A    between atoms: _284  and  _287
REMARK  116  A    between atoms: _287  and  _288
REMARK  117  A    between atoms: _293  and  _294
REMARK                            x       y       z     vdW  Elec       q    Type
REMARK                         _______ _______ _______ _____ _____    ______ ____
ROOT
ATOM      1  O   HOH     1      12.987  52.386  61.000  0.00  0.00    +0.000 OA
ENDROOT
TORSDOF 0
