REMARK  Name = ../refined-set-2016/4css/4css_pocket.pdb
REMARK  120 active torsions:
REMARK  status: ('A' for Active; 'I' for Inactive)
REMARK    1  A    between atoms: _1  and  _5
REMARK    2  A    between atoms: _5  and  _6
REMARK    3  A    between atoms: _5  and  _8
REMARK    4  A    between atoms: _8  and  _9
REMARK    5  A    between atoms: _15  and  _17
REMARK    6  A    between atoms: _17  and  _18
REMARK    7  A    between atoms: _22  and  _23
REMARK    8  A    between atoms: _28  and  _30
REMARK    9  A    between atoms: _30  and  _31
REMARK   10  A    between atoms: _30  and  _33
REMARK   11  A    between atoms: _33  and  _34
REMARK   12  A    between atoms: _37  and  _39
REMARK   13  A    between atoms: _39  and  _40
REMARK   14  A    between atoms: _42  and  _44
REMARK   15  A    between atoms: _44  and  _45
REMARK   16  A    between atoms: _47  and  _49
REMARK   17  A    between atoms: _49  and  _50
REMARK   18  A    between atoms: _49  and  _52
REMARK   19  A    between atoms: _52  and  _53
REMARK   20  A    between atoms: _58  and  _60
REMARK   21  A    between atoms: _60  and  _61
REMARK   22  A    between atoms: _60  and  _63
REMARK   23  A    between atoms: _63  and  _64
REMARK   24  A    between atoms: _69  and  _71
REMARK   25  A    between atoms: _71  and  _72
REMARK   26  A    between atoms: _71  and  _74
REMARK   27  A    between atoms: _74  and  _75
REMARK   28  A    between atoms: _78  and  _80
REMARK   29  A    between atoms: _80  and  _81
REMARK   30  A    between atoms: _80  and  _83
REMARK   31  A    between atoms: _83  and  _84
REMARK   32  A    between atoms: _89  and  _90
REMARK   33  A    between atoms: _93  and  _94
REMARK   34  A    between atoms: _99  and  _101
REMARK   35  A    between atoms: _101  and  _102
REMARK   36  A    between atoms: _101  and  _104
REMARK   37  A    between atoms: _104  and  _105
REMARK   38  A    between atoms: _105  and  _106
REMARK   39  A    between atoms: _109  and  _111
REMARK   40  A    between atoms: _111  and  _112
REMARK   41  A    between atoms: _111  and  _114
REMARK   42  A    between atoms: _114  and  _115
REMARK   43  A    between atoms: _118  and  _120
REMARK   44  A    between atoms: _120  and  _121
REMARK   45  A    between atoms: _120  and  _123
REMARK   46  A    between atoms: _123  and  _124
REMARK   47  A    between atoms: _127  and  _129
REMARK   48  A    between atoms: _129  and  _130
REMARK   49  A    between atoms: _129  and  _132
REMARK   50  A    between atoms: _132  and  _133
REMARK   51  A    between atoms: _136  and  _138
REMARK   52  A    between atoms: _138  and  _139
REMARK   53  A    between atoms: _138  and  _141
REMARK   54  A    between atoms: _141  and  _142
REMARK   55  A    between atoms: _145  and  _147
REMARK   56  A    between atoms: _147  and  _148
REMARK   57  A    between atoms: _147  and  _150
REMARK   58  A    between atoms: _150  and  _151
REMARK   59  A    between atoms: _156  and  _157
REMARK   60  A    between atoms: _159  and  _161
REMARK   61  A    between atoms: _161  and  _162
REMARK   62  A    between atoms: _161  and  _164
REMARK   63  A    between atoms: _164  and  _165
REMARK   64  A    between atoms: _170  and  _171
REMARK   65  A    between atoms: _173  and  _175
REMARK   66  A    between atoms: _175  and  _176
REMARK   67  A    between atoms: _175  and  _178
REMARK   68  A    between atoms: _178  and  _179
REMARK   69  A    between atoms: _181  and  _183
REMARK   70  A    between atoms: _183  and  _184
REMARK   71  A    between atoms: _183  and  _186
REMARK   72  A    between atoms: _186  and  _187
REMARK   73  A    between atoms: _187  and  _188
REMARK   74  A    between atoms: _188  and  _189
REMARK   75  A    between atoms: _198  and  _200
REMARK   76  A    between atoms: _200  and  _201
REMARK   77  A    between atoms: _200  and  _203
REMARK   78  A    between atoms: _203  and  _204
REMARK   79  A    between atoms: _204  and  _205
REMARK   80  A    between atoms: _210  and  _212
REMARK   81  A    between atoms: _212  and  _213
REMARK   82  A    between atoms: _212  and  _215
REMARK   83  A    between atoms: _215  and  _216
REMARK   84  A    between atoms: _219  and  _221
REMARK   85  A    between atoms: _221  and  _222
REMARK   86  A    between atoms: _221  and  _224
REMARK   87  A    between atoms: _224  and  _225
REMARK   88  A    between atoms: _230  and  _232
REMARK   89  A    between atoms: _232  and  _233
REMARK   90  A    between atoms: _232  and  _235
REMARK   91  A    between atoms: _235  and  _236
REMARK   92  A    between atoms: _241  and  _243
REMARK   93  A    between atoms: _243  and  _244
REMARK   94  A    between atoms: _243  and  _246
REMARK   95  A    between atoms: _246  and  _247
REMARK   96  A    between atoms: _252  and  _253
REMARK   97  A    between atoms: _255  and  _257
REMARK   98  A    between atoms: _257  and  _258
REMARK   99  A    between atoms: _257  and  _260
REMARK  100  A    between atoms: _260  and  _261
REMARK  101  A    between atoms: _266  and  _268
REMARK  102  A    between atoms: _268  and  _269
REMARK  103  A    between atoms: _268  and  _271
REMARK  104  A    between atoms: _271  and  _272
REMARK  105  A    between atoms: _274  and  _276
REMARK  106  A    between atoms: _276  and  _277
REMARK  107  A    between atoms: _276  and  _279
REMARK  108  A    between atoms: _279  and  _280
REMARK  109  A    between atoms: _283  and  _285
REMARK  110  A    between atoms: _285  and  _286
REMARK  111  A    between atoms: _285  and  _288
REMARK  112  A    between atoms: _288  and  _289
REMARK  113  A    between atoms: _292  and  _294
REMARK  114  A    between atoms: _294  and  _295
REMARK  115  A    between atoms: _294  and  _297
REMARK  116  A    between atoms: _297  and  _298
REMARK  117  A    between atoms: _304  and  _306
REMARK  118  A    between atoms: _306  and  _307
REMARK  119  A    between atoms: _306  and  _309
REMARK  120  A    between atoms: _309  and  _310
REMARK                            x       y       z     vdW  Elec       q    Type
REMARK                         _______ _______ _______ _____ _____    ______ ____
ROOT
ATOM      1  CA  PHE A   1       0.548  51.951  -7.843  0.00  0.00    +0.017 C 
ENDROOT
BRANCH   1   2
ATOM      2  N   PHE A   1      -0.402  51.232  -8.715  0.00  0.00    +0.388 N 
ATOM      3  H1  PHE A   1      -1.246  50.972  -8.166  0.00  0.00    -0.089 HD
ATOM      4  H2  PHE A   1       0.051  50.372  -9.085  0.00  0.00    -0.089 HD
ATOM      5  H3  PHE A   1      -0.678  51.848  -9.506  0.00  0.00    -0.089 HD
ENDBRANCH   1   2
BRANCH   1   6
ATOM      6  C   PHE A   1       1.765  52.318  -8.665  0.00  0.00    +0.202 C 
ATOM      7  N   ALA A   2       2.118  53.592  -8.615  0.00  0.00    -0.301 N 
ATOM      8  H   ALA A   2       1.539  54.256  -8.062  0.00  0.00    +0.150 HD
ATOM      9  O   PHE A   1       2.368  51.464  -9.296  0.00  0.00    -0.277 OA
BRANCH   7  10
ATOM     10  CA  ALA A   2       3.294  54.090  -9.313  0.00  0.00    +0.137 C 
ATOM     11  CB  ALA A   2       2.991  54.401 -10.785  0.00  0.00    +0.030 C 
BRANCH  10  12
ATOM     12  C   ALA A   2       3.790  55.324  -8.590  0.00  0.00    +0.227 C 
ATOM     13  O   ALA A   2       3.098  55.905  -7.757  0.00  0.00    -0.286 OA
ENDBRANCH  10  12
ENDBRANCH   7  10
ENDBRANCH   1   6
BRANCH   1  14
ATOM     14  CB  PHE A   1       0.944  51.080  -6.655  0.00  0.00    +0.013 C 
BRANCH  14  15
ATOM     15  CG  PHE A   1       1.915  51.762  -5.740  0.00  0.00    -0.024 A 
ATOM     16  CD2 PHE A   1       1.459  52.508  -4.667  0.00  0.00    -0.004 A 
ATOM     17  CE2 PHE A   1       2.347  53.142  -3.825  0.00  0.00    -0.000 A 
ATOM     18  CZ  PHE A   1       3.714  53.037  -4.029  0.00  0.00    -0.000 A 
ATOM     19  CE1 PHE A   1       4.180  52.278  -5.108  0.00  0.00    -0.000 A 
ATOM     20  CD1 PHE A   1       3.274  51.654  -5.946  0.00  0.00    -0.004 A 
ENDBRANCH  14  15
ENDBRANCH   1  14
TORSDOF 6
REMARK  Name = ../refined-set-2016/4css/4css_pocket.pdb
REMARK  120 active torsions:
REMARK  status: ('A' for Active; 'I' for Inactive)
REMARK    1  A    between atoms: _1  and  _5
REMARK    2  A    between atoms: _5  and  _6
REMARK    3  A    between atoms: _5  and  _8
REMARK    4  A    between atoms: _8  and  _9
REMARK    5  A    between atoms: _15  and  _17
REMARK    6  A    between atoms: _17  and  _18
REMARK    7  A    between atoms: _22  and  _23
REMARK    8  A    between atoms: _28  and  _30
REMARK    9  A    between atoms: _30  and  _31
REMARK   10  A    between atoms: _30  and  _33
REMARK   11  A    between atoms: _33  and  _34
REMARK   12  A    between atoms: _37  and  _39
REMARK   13  A    between atoms: _39  and  _40
REMARK   14  A    between atoms: _42  and  _44
REMARK   15  A    between atoms: _44  and  _45
REMARK   16  A    between atoms: _47  and  _49
REMARK   17  A    between atoms: _49  and  _50
REMARK   18  A    between atoms: _49  and  _52
REMARK   19  A    between atoms: _52  and  _53
REMARK   20  A    between atoms: _58  and  _60
REMARK   21  A    between atoms: _60  and  _61
REMARK   22  A    between atoms: _60  and  _63
REMARK   23  A    between atoms: _63  and  _64
REMARK   24  A    between atoms: _69  and  _71
REMARK   25  A    between atoms: _71  and  _72
REMARK   26  A    between atoms: _71  and  _74
REMARK   27  A    between atoms: _74  and  _75
REMARK   28  A    between atoms: _78  and  _80
REMARK   29  A    between atoms: _80  and  _81
REMARK   30  A    between atoms: _80  and  _83
REMARK   31  A    between atoms: _83  and  _84
REMARK   32  A    between atoms: _89  and  _90
REMARK   33  A    between atoms: _93  and  _94
REMARK   34  A    between atoms: _99  and  _101
REMARK   35  A    between atoms: _101  and  _102
REMARK   36  A    between atoms: _101  and  _104
REMARK   37  A    between atoms: _104  and  _105
REMARK   38  A    between atoms: _105  and  _106
REMARK   39  A    between atoms: _109  and  _111
REMARK   40  A    between atoms: _111  and  _112
REMARK   41  A    between atoms: _111  and  _114
REMARK   42  A    between atoms: _114  and  _115
REMARK   43  A    between atoms: _118  and  _120
REMARK   44  A    between atoms: _120  and  _121
REMARK   45  A    between atoms: _120  and  _123
REMARK   46  A    between atoms: _123  and  _124
REMARK   47  A    between atoms: _127  and  _129
REMARK   48  A    between atoms: _129  and  _130
REMARK   49  A    between atoms: _129  and  _132
REMARK   50  A    between atoms: _132  and  _133
REMARK   51  A    between atoms: _136  and  _138
REMARK   52  A    between atoms: _138  and  _139
REMARK   53  A    between atoms: _138  and  _141
REMARK   54  A    between atoms: _141  and  _142
REMARK   55  A    between atoms: _145  and  _147
REMARK   56  A    between atoms: _147  and  _148
REMARK   57  A    between atoms: _147  and  _150
REMARK   58  A    between atoms: _150  and  _151
REMARK   59  A    between atoms: _156  and  _157
REMARK   60  A    between atoms: _159  and  _161
REMARK   61  A    between atoms: _161  and  _162
REMARK   62  A    between atoms: _161  and  _164
REMARK   63  A    between atoms: _164  and  _165
REMARK   64  A    between atoms: _170  and  _171
REMARK   65  A    between atoms: _173  and  _175
REMARK   66  A    between atoms: _175  and  _176
REMARK   67  A    between atoms: _175  and  _178
REMARK   68  A    between atoms: _178  and  _179
REMARK   69  A    between atoms: _181  and  _183
REMARK   70  A    between atoms: _183  and  _184
REMARK   71  A    between atoms: _183  and  _186
REMARK   72  A    between atoms: _186  and  _187
REMARK   73  A    between atoms: _187  and  _188
REMARK   74  A    between atoms: _188  and  _189
REMARK   75  A    between atoms: _198  and  _200
REMARK   76  A    between atoms: _200  and  _201
REMARK   77  A    between atoms: _200  and  _203
REMARK   78  A    between atoms: _203  and  _204
REMARK   79  A    between atoms: _204  and  _205
REMARK   80  A    between atoms: _210  and  _212
REMARK   81  A    between atoms: _212  and  _213
REMARK   82  A    between atoms: _212  and  _215
REMARK   83  A    between atoms: _215  and  _216
REMARK   84  A    between atoms: _219  and  _221
REMARK   85  A    between atoms: _221  and  _222
REMARK   86  A    between atoms: _221  and  _224
REMARK   87  A    between atoms: _224  and  _225
REMARK   88  A    between atoms: _230  and  _232
REMARK   89  A    between atoms: _232  and  _233
REMARK   90  A    between atoms: _232  and  _235
REMARK   91  A    between atoms: _235  and  _236
REMARK   92  A    between atoms: _241  and  _243
REMARK   93  A    between atoms: _243  and  _244
REMARK   94  A    between atoms: _243  and  _246
REMARK   95  A    between atoms: _246  and  _247
REMARK   96  A    between atoms: _252  and  _253
REMARK   97  A    between atoms: _255  and  _257
REMARK   98  A    between atoms: _257  and  _258
REMARK   99  A    between atoms: _257  and  _260
REMARK  100  A    between atoms: _260  and  _261
REMARK  101  A    between atoms: _266  and  _268
REMARK  102  A    between atoms: _268  and  _269
REMARK  103  A    between atoms: _268  and  _271
REMARK  104  A    between atoms: _271  and  _272
REMARK  105  A    between atoms: _274  and  _276
REMARK  106  A    between atoms: _276  and  _277
REMARK  107  A    between atoms: _276  and  _279
REMARK  108  A    between atoms: _279  and  _280
REMARK  109  A    between atoms: _283  and  _285
REMARK  110  A    between atoms: _285  and  _286
REMARK  111  A    between atoms: _285  and  _288
REMARK  112  A    between atoms: _288  and  _289
REMARK  113  A    between atoms: _292  and  _294
REMARK  114  A    between atoms: _294  and  _295
REMARK  115  A    between atoms: _294  and  _297
REMARK  116  A    between atoms: _297  and  _298
REMARK  117  A    between atoms: _304  and  _306
REMARK  118  A    between atoms: _306  and  _307
REMARK  119  A    between atoms: _306  and  _309
REMARK  120  A    between atoms: _309  and  _310
REMARK                            x       y       z     vdW  Elec       q    Type
REMARK                         _______ _______ _______ _____ _____    ______ ____
ROOT
ATOM      1  CA  ILE A   2       3.380  49.916 -12.183  0.00  0.00    +0.148 C 
ENDROOT
BRANCH   1   4
ATOM      2  C   PRO A   1       5.149  51.562 -12.499  0.00  0.00    +0.239 C 
ATOM      3  O   PRO A   1       5.924  50.995 -11.720  0.00  0.00    -0.274 OA
ATOM      4  N   ILE A   2       3.893  51.177 -12.686  0.00  0.00    -0.297 N 
ATOM      5  H   ILE A   2       3.251  51.803 -13.213  0.00  0.00    +0.150 HD
BRANCH   2   7
ATOM      6  N   PRO A   1       6.963  53.142 -13.100  0.00  0.00    -0.210 NA
ATOM      7  CA  PRO A   1       5.579  52.743 -13.358  0.00  0.00    +0.149 C 
ATOM      8  CB  PRO A   1       5.619  52.307 -14.833  0.00  0.00    +0.028 C 
ATOM      9  CG  PRO A   1       6.978  51.743 -14.970  0.00  0.00    +0.021 C 
ATOM     10  CD  PRO A   1       7.876  52.654 -14.148  0.00  0.00    +0.089 C 
ENDBRANCH   2   7
ENDBRANCH   1   4
BRANCH   1  11
ATOM     11  C   ILE A   2       4.404  48.835 -12.390  0.00  0.00    +0.241 C 
ATOM     12  N   GLY A   3       4.593  48.030 -11.349  0.00  0.00    -0.295 N 
ATOM     13  H   GLY A   3       4.071  48.210 -10.468  0.00  0.00    +0.150 HD
ATOM     14  O   ILE A   2       4.983  48.699 -13.466  0.00  0.00    -0.273 OA
BRANCH  12  15
ATOM     15  CA  GLY A   3       5.504  46.912 -11.410  0.00  0.00    +0.176 C 
BRANCH  15  16
ATOM     16  C   GLY A   3       6.888  47.202 -10.897  0.00  0.00    +0.243 C 
ATOM     17  N   GLY A   4       7.194  48.459 -10.585  0.00  0.00    -0.296 N 
ATOM     18  H   GLY A   4       6.495  49.213 -10.744  0.00  0.00    +0.150 HD
ATOM     19  O   GLY A   3       7.695  46.278 -10.747  0.00  0.00    -0.273 OA
BRANCH  17  20
ATOM     20  CA  GLY A   4       8.492  48.791 -10.025  0.00  0.00    +0.163 C 
BRANCH  20  21
ATOM     21  C   GLY A   4       9.574  49.011 -11.042  0.00  0.00    +0.229 C 
ATOM     22  O   GLY A   4       9.345  49.085 -12.252  0.00  0.00    -0.286 OA
ENDBRANCH  20  21
ENDBRANCH  17  20
ENDBRANCH  15  16
ENDBRANCH  12  15
ENDBRANCH   1  11
BRANCH   1  23
ATOM     23  CB  ILE A   2       2.082  49.543 -12.920  0.00  0.00    +0.027 C 
ATOM     24  CG2 ILE A   2       1.764  48.044 -12.785  0.00  0.00    +0.002 C 
BRANCH  23  25
ATOM     25  CG1 ILE A   2       0.965  50.455 -12.423  0.00  0.00    +0.002 C 
ATOM     26  CD1 ILE A   2      -0.362  50.230 -13.110  0.00  0.00    +0.000 C 
ENDBRANCH  23  25
ENDBRANCH   1  23
TORSDOF 9
REMARK  Name = ../refined-set-2016/4css/4css_pocket.pdb
REMARK  120 active torsions:
REMARK  status: ('A' for Active; 'I' for Inactive)
REMARK    1  A    between atoms: _1  and  _5
REMARK    2  A    between atoms: _5  and  _6
REMARK    3  A    between atoms: _5  and  _8
REMARK    4  A    between atoms: _8  and  _9
REMARK    5  A    between atoms: _15  and  _17
REMARK    6  A    between atoms: _17  and  _18
REMARK    7  A    between atoms: _22  and  _23
REMARK    8  A    between atoms: _28  and  _30
REMARK    9  A    between atoms: _30  and  _31
REMARK   10  A    between atoms: _30  and  _33
REMARK   11  A    between atoms: _33  and  _34
REMARK   12  A    between atoms: _37  and  _39
REMARK   13  A    between atoms: _39  and  _40
REMARK   14  A    between atoms: _42  and  _44
REMARK   15  A    between atoms: _44  and  _45
REMARK   16  A    between atoms: _47  and  _49
REMARK   17  A    between atoms: _49  and  _50
REMARK   18  A    between atoms: _49  and  _52
REMARK   19  A    between atoms: _52  and  _53
REMARK   20  A    between atoms: _58  and  _60
REMARK   21  A    between atoms: _60  and  _61
REMARK   22  A    between atoms: _60  and  _63
REMARK   23  A    between atoms: _63  and  _64
REMARK   24  A    between atoms: _69  and  _71
REMARK   25  A    between atoms: _71  and  _72
REMARK   26  A    between atoms: _71  and  _74
REMARK   27  A    between atoms: _74  and  _75
REMARK   28  A    between atoms: _78  and  _80
REMARK   29  A    between atoms: _80  and  _81
REMARK   30  A    between atoms: _80  and  _83
REMARK   31  A    between atoms: _83  and  _84
REMARK   32  A    between atoms: _89  and  _90
REMARK   33  A    between atoms: _93  and  _94
REMARK   34  A    between atoms: _99  and  _101
REMARK   35  A    between atoms: _101  and  _102
REMARK   36  A    between atoms: _101  and  _104
REMARK   37  A    between atoms: _104  and  _105
REMARK   38  A    between atoms: _105  and  _106
REMARK   39  A    between atoms: _109  and  _111
REMARK   40  A    between atoms: _111  and  _112
REMARK   41  A    between atoms: _111  and  _114
REMARK   42  A    between atoms: _114  and  _115
REMARK   43  A    between atoms: _118  and  _120
REMARK   44  A    between atoms: _120  and  _121
REMARK   45  A    between atoms: _120  and  _123
REMARK   46  A    between atoms: _123  and  _124
REMARK   47  A    between atoms: _127  and  _129
REMARK   48  A    between atoms: _129  and  _130
REMARK   49  A    between atoms: _129  and  _132
REMARK   50  A    between atoms: _132  and  _133
REMARK   51  A    between atoms: _136  and  _138
REMARK   52  A    between atoms: _138  and  _139
REMARK   53  A    between atoms: _138  and  _141
REMARK   54  A    between atoms: _141  and  _142
REMARK   55  A    between atoms: _145  and  _147
REMARK   56  A    between atoms: _147  and  _148
REMARK   57  A    between atoms: _147  and  _150
REMARK   58  A    between atoms: _150  and  _151
REMARK   59  A    between atoms: _156  and  _157
REMARK   60  A    between atoms: _159  and  _161
REMARK   61  A    between atoms: _161  and  _162
REMARK   62  A    between atoms: _161  and  _164
REMARK   63  A    between atoms: _164  and  _165
REMARK   64  A    between atoms: _170  and  _171
REMARK   65  A    between atoms: _173  and  _175
REMARK   66  A    between atoms: _175  and  _176
REMARK   67  A    between atoms: _175  and  _178
REMARK   68  A    between atoms: _178  and  _179
REMARK   69  A    between atoms: _181  and  _183
REMARK   70  A    between atoms: _183  and  _184
REMARK   71  A    between atoms: _183  and  _186
REMARK   72  A    between atoms: _186  and  _187
REMARK   73  A    between atoms: _187  and  _188
REMARK   74  A    between atoms: _188  and  _189
REMARK   75  A    between atoms: _198  and  _200
REMARK   76  A    between atoms: _200  and  _201
REMARK   77  A    between atoms: _200  and  _203
REMARK   78  A    between atoms: _203  and  _204
REMARK   79  A    between atoms: _204  and  _205
REMARK   80  A    between atoms: _210  and  _212
REMARK   81  A    between atoms: _212  and  _213
REMARK   82  A    between atoms: _212  and  _215
REMARK   83  A    between atoms: _215  and  _216
REMARK   84  A    between atoms: _219  and  _221
REMARK   85  A    between atoms: _221  and  _222
REMARK   86  A    between atoms: _221  and  _224
REMARK   87  A    between atoms: _224  and  _225
REMARK   88  A    between atoms: _230  and  _232
REMARK   89  A    between atoms: _232  and  _233
REMARK   90  A    between atoms: _232  and  _235
REMARK   91  A    between atoms: _235  and  _236
REMARK   92  A    between atoms: _241  and  _243
REMARK   93  A    between atoms: _243  and  _244
REMARK   94  A    between atoms: _243  and  _246
REMARK   95  A    between atoms: _246  and  _247
REMARK   96  A    between atoms: _252  and  _253
REMARK   97  A    between atoms: _255  and  _257
REMARK   98  A    between atoms: _257  and  _258
REMARK   99  A    between atoms: _257  and  _260
REMARK  100  A    between atoms: _260  and  _261
REMARK  101  A    between atoms: _266  and  _268
REMARK  102  A    between atoms: _268  and  _269
REMARK  103  A    between atoms: _268  and  _271
REMARK  104  A    between atoms: _271  and  _272
REMARK  105  A    between atoms: _274  and  _276
REMARK  106  A    between atoms: _276  and  _277
REMARK  107  A    between atoms: _276  and  _279
REMARK  108  A    between atoms: _279  and  _280
REMARK  109  A    between atoms: _283  and  _285
REMARK  110  A    between atoms: _285  and  _286
REMARK  111  A    between atoms: _285  and  _288
REMARK  112  A    between atoms: _288  and  _289
REMARK  113  A    between atoms: _292  and  _294
REMARK  114  A    between atoms: _294  and  _295
REMARK  115  A    between atoms: _294  and  _297
REMARK  116  A    between atoms: _297  and  _298
REMARK  117  A    between atoms: _304  and  _306
REMARK  118  A    between atoms: _306  and  _307
REMARK  119  A    between atoms: _306  and  _309
REMARK  120  A    between atoms: _309  and  _310
REMARK                            x       y       z     vdW  Elec       q    Type
REMARK                         _______ _______ _______ _____ _____    ______ ____
ROOT
ATOM      1  CA  GLU A   6     -12.055  52.292  -5.036  0.00  0.00    +0.149 C 
ENDROOT
BRANCH   1   4
ATOM      2  C   PRO A   5      -9.800  52.708  -4.206  0.00  0.00    +0.241 C 
ATOM      3  O   PRO A   5     -10.104  52.461  -3.053  0.00  0.00    -0.273 OA
ATOM      4  N   GLU A   6     -10.664  52.667  -5.210  0.00  0.00    -0.297 N 
ATOM      5  H   GLU A   6     -10.331  52.914  -6.164  0.00  0.00    +0.150 HD
BRANCH   2   8
ATOM      6  C   TYR A   4      -8.006  51.856  -6.647  0.00  0.00    +0.244 C 
ATOM      7  N   PRO A   5      -8.073  53.030  -5.997  0.00  0.00    -0.272 N 
ATOM      8  CA  PRO A   5      -8.361  53.047  -4.559  0.00  0.00    +0.152 C 
ATOM      9  CB  PRO A   5      -8.028  54.487  -4.171  0.00  0.00    +0.031 C 
ATOM     10  CG  PRO A   5      -8.276  55.279  -5.420  0.00  0.00    +0.024 C 
ATOM     11  CD  PRO A   5      -7.746  54.374  -6.505  0.00  0.00    +0.094 C 
ATOM     12  O   TYR A   4      -8.340  50.807  -6.118  0.00  0.00    -0.273 OA
BRANCH   6  13
ATOM     13  CA  TYR A   4      -7.523  51.911  -8.089  0.00  0.00    +0.153 C 
BRANCH  13  15
ATOM     14  C   ASP A   3      -5.674  52.997  -9.198  0.00  0.00    +0.241 C 
ATOM     15  N   TYR A   4      -6.135  52.360  -8.125  0.00  0.00    -0.297 N 
ATOM     16  H   TYR A   4      -5.508  52.183  -7.314  0.00  0.00    +0.150 HD
ATOM     17  O   ASP A   3      -6.370  53.183 -10.201  0.00  0.00    -0.273 OA
BRANCH  14  18
ATOM     18  CA  ASP A   3      -4.228  53.488  -9.197  0.00  0.00    +0.160 C 
BRANCH  18  21
ATOM     19  C   ASN A   2      -3.617  54.334  -6.980  0.00  0.00    +0.241 C 
ATOM     20  O   ASN A   2      -4.282  55.355  -7.147  0.00  0.00    -0.273 OA
ATOM     21  N   ASP A   3      -3.551  53.379  -7.900  0.00  0.00    -0.297 N 
ATOM     22  H   ASP A   3      -2.999  52.522  -7.694  0.00  0.00    +0.150 HD
BRANCH  19  23
ATOM     23  CA  ASN A   2      -2.771  54.125  -5.715  0.00  0.00    +0.158 C 
BRANCH  23  25
ATOM     24  C   HIS A   1      -0.777  55.575  -5.868  0.00  0.00    +0.239 C 
ATOM     25  N   ASN A   2      -2.016  55.345  -5.462  0.00  0.00    -0.297 N 
ATOM     26  H   ASN A   2      -2.488  56.096  -4.919  0.00  0.00    +0.150 HD
ATOM     27  O   HIS A   1      -0.087  54.754  -6.463  0.00  0.00    -0.274 OA
BRANCH  24  28
ATOM     28  CA  HIS A   1      -0.277  56.977  -5.567  0.00  0.00    +0.151 C 
BRANCH  28  29
ATOM     29  N   HIS A   1       1.173  56.993  -5.642  0.00  0.00    -0.238 NA
ATOM     30  H   HIS A   1       1.665  56.320  -6.263  0.00  0.00    +0.142 HD
ENDBRANCH  28  29
BRANCH  28  31
ATOM     31  CB  HIS A   1      -0.906  57.998  -6.532  0.00  0.00    +0.074 C 
BRANCH  31  32
ATOM     32  CG  HIS A   1      -0.744  57.590  -7.941  0.00  0.00    +0.082 A 
ATOM     33  ND1 HIS A   1       0.388  57.878  -8.661  0.00  0.00    -0.227 NA
ATOM     34  CE1 HIS A   1       0.288  57.315  -9.858  0.00  0.00    +0.199 A 
ATOM     35  NE2 HIS A   1      -0.854  56.656  -9.918  0.00  0.00    -0.221 NA
ATOM     36  CD2 HIS A   1      -1.513  56.807  -8.725  0.00  0.00    +0.115 A 
ENDBRANCH  31  32
ENDBRANCH  28  31
ENDBRANCH  24  28
ENDBRANCH  23  25
BRANCH  23  37
ATOM     37  CB  ASN A   2      -3.649  53.895  -4.471  0.00  0.00    +0.114 C 
BRANCH  37  38
ATOM     38  CG  ASN A   2      -4.548  52.693  -4.522  0.00  0.00    +0.222 C 
ATOM     39  ND2 ASN A   2      -4.814  52.147  -3.336  0.00  0.00    -0.329 N 
ATOM     40 HD21 ASN A   2      -4.370  52.529  -2.476  0.00  0.00    +0.145 HD
ATOM     41 HD22 ASN A   2      -5.465  51.339  -3.270  0.00  0.00    +0.145 HD
ATOM     42  OD1 ASN A   2      -5.052  52.272  -5.565  0.00  0.00    -0.275 OA
ENDBRANCH  37  38
ENDBRANCH  23  37
ENDBRANCH  19  23
ENDBRANCH  18  21
BRANCH  18  43
ATOM     43  CB  ASP A   3      -3.409  52.753 -10.263  0.00  0.00    +0.143 C 
BRANCH  43  44
ATOM     44  CG  ASP A   3      -2.195  53.558 -10.694  0.00  0.00    +0.367 C 
ATOM     45  OD2 ASP A   3      -1.073  53.018 -10.638  0.00  0.00    -0.246 OA
ATOM     46  OD1 ASP A   3      -2.373  54.744 -11.073  0.00  0.00    -0.246 OA
ENDBRANCH  43  44
ENDBRANCH  18  43
ENDBRANCH  14  18
ENDBRANCH  13  15
BRANCH  13  47
ATOM     47  CB  TYR A   4      -7.720  50.598  -8.828  0.00  0.00    +0.055 C 
BRANCH  47  48
ATOM     48  CG  TYR A   4      -9.162  50.488  -9.289  0.00  0.00    -0.020 A 
ATOM     49  CD2 TYR A   4     -10.046  49.653  -8.667  0.00  0.00    -0.001 A 
ATOM     50  CE2 TYR A   4     -11.376  49.581  -9.050  0.00  0.00    +0.036 A 
ATOM     51  CZ  TYR A   4     -11.830  50.384 -10.069  0.00  0.00    +0.134 A 
ATOM     52  CE1 TYR A   4     -10.986  51.246 -10.696  0.00  0.00    +0.036 A 
ATOM     53  CD1 TYR A   4      -9.668  51.298 -10.309  0.00  0.00    -0.001 A 
BRANCH  51  54
ATOM     54  OH  TYR A   4     -13.145  50.343 -10.470  0.00  0.00    -0.506 OA
ATOM     55  HH  TYR A   4     -13.729  50.584  -9.708  0.00  0.00    +0.292 HD
ENDBRANCH  51  54
ENDBRANCH  47  48
ENDBRANCH  13  47
ENDBRANCH   6  13
ENDBRANCH   2   8
ENDBRANCH   1   4
BRANCH   1  56
ATOM     56  C   GLU A   6     -12.137  50.913  -4.416  0.00  0.00    +0.241 C 
ATOM     57  O   GLU A   6     -13.036  50.668  -3.621  0.00  0.00    -0.273 OA
ATOM     58  N   THR A   7     -11.237  50.012  -4.800  0.00  0.00    -0.295 N 
ATOM     59  H   THR A   7     -10.483  50.294  -5.459  0.00  0.00    +0.150 HD
BRANCH  58  60
ATOM     60  CA  THR A   7     -11.284  48.641  -4.319  0.00  0.00    +0.176 C 
BRANCH  60  61
ATOM     61  C   THR A   7      -9.983  48.097  -3.766  0.00  0.00    +0.243 C 
ATOM     62  O   THR A   7     -10.014  47.109  -3.035  0.00  0.00    -0.273 OA
ATOM     63  N   ILE A   8      -8.865  48.731  -4.061  0.00  0.00    -0.297 N 
ATOM     64  H   ILE A   8      -8.908  49.633  -4.576  0.00  0.00    +0.150 HD
BRANCH  63  65
ATOM     65  CA  ILE A   8      -7.572  48.186  -3.676  0.00  0.00    +0.149 C 
BRANCH  65  66
ATOM     66  C   ILE A   8      -6.921  49.092  -2.642  0.00  0.00    +0.241 C 
ATOM     67  N   THR A   9      -6.338  48.489  -1.605  0.00  0.00    -0.295 N 
ATOM     68  H   THR A   9      -6.509  47.474  -1.454  0.00  0.00    +0.150 HD
ATOM     69  O   ILE A   8      -6.937  50.317  -2.800  0.00  0.00    -0.273 OA
BRANCH  67  70
ATOM     70  CA  THR A   9      -5.471  49.199  -0.677  0.00  0.00    +0.176 C 
BRANCH  70  71
ATOM     71  C   THR A   9      -4.035  48.769  -0.941  0.00  0.00    +0.243 C 
ATOM     72  O   THR A   9      -3.739  47.588  -1.008  0.00  0.00    -0.273 OA
ATOM     73  N   ASP A  10      -3.153  49.752  -1.131  0.00  0.00    -0.296 N 
ATOM     74  H   ASP A  10      -3.501  50.732  -1.145  0.00  0.00    +0.150 HD
BRANCH  73  75
ATOM     75  CA  ASP A  10      -1.732  49.521  -1.319  0.00  0.00    +0.160 C 
BRANCH  75  76
ATOM     76  C   ASP A  10      -0.976  49.682   0.006  0.00  0.00    +0.241 C 
ATOM     77  O   ASP A  10      -1.287  50.556   0.804  0.00  0.00    -0.273 OA
ATOM     78  N   TYR A  11       0.018  48.817   0.176  0.00  0.00    -0.298 N 
ATOM     79  H   TYR A  11       0.206  48.121  -0.573  0.00  0.00    +0.150 HD
BRANCH  78  80
ATOM     80  CA  TYR A  11       0.861  48.802   1.374  0.00  0.00    +0.141 C 
BRANCH  80  81
ATOM     81  C   TYR A  11       2.293  49.025   0.941  0.00  0.00    +0.227 C 
ATOM     82  O   TYR A  11       2.779  48.365   0.014  0.00  0.00    -0.286 OA
ENDBRANCH  80  81
BRANCH  80  83
ATOM     83  CB  TYR A  11       0.759  47.452   2.051  0.00  0.00    +0.054 C 
BRANCH  83  84
ATOM     84  CG  TYR A  11      -0.638  47.037   2.450  0.00  0.00    -0.020 A 
ATOM     85  CD2 TYR A  11      -1.421  47.820   3.273  0.00  0.00    -0.001 A 
ATOM     86  CE2 TYR A  11      -2.702  47.420   3.625  0.00  0.00    +0.036 A 
ATOM     87  CZ  TYR A  11      -3.182  46.225   3.162  0.00  0.00    +0.134 A 
ATOM     88  CE1 TYR A  11      -2.405  45.435   2.353  0.00  0.00    +0.036 A 
ATOM     89  CD1 TYR A  11      -1.161  45.850   1.985  0.00  0.00    -0.001 A 
BRANCH  87  90
ATOM     90  OH  TYR A  11      -4.445  45.787   3.487  0.00  0.00    -0.506 OA
ATOM     91  HH  TYR A  11      -4.884  46.455   4.071  0.00  0.00    +0.292 HD
ENDBRANCH  87  90
ENDBRANCH  83  84
ENDBRANCH  80  83
ENDBRANCH  78  80
ENDBRANCH  75  76
BRANCH  75  92
ATOM     92  CB  ASP A  10      -1.180  50.510  -2.353  0.00  0.00    +0.143 C 
BRANCH  92  93
ATOM     93  CG  ASP A  10      -1.635  50.217  -3.761  0.00  0.00    +0.367 C 
ATOM     94  OD2 ASP A  10      -1.811  49.027  -4.066  0.00  0.00    -0.246 OA
ATOM     95  OD1 ASP A  10      -1.811  51.185  -4.534  0.00  0.00    -0.246 OA
ENDBRANCH  92  93
ENDBRANCH  75  92
ENDBRANCH  73  75
ENDBRANCH  70  71
BRANCH  70  96
ATOM     96  CB  THR A   9      -5.837  48.843   0.770  0.00  0.00    +0.137 C 
ATOM     97  CG2 THR A   9      -4.973  49.620   1.755  0.00  0.00    +0.034 C 
BRANCH  96  98
ATOM     98  OG1 THR A   9      -7.211  49.153   1.012  0.00  0.00    -0.382 OA
ATOM     99  HG1 THR A   9      -7.361  50.120   0.864  0.00  0.00    +0.210 HD
ENDBRANCH  96  98
ENDBRANCH  70  96
ENDBRANCH  67  70
ENDBRANCH  65  66
BRANCH  65 100
ATOM    100  CB  ILE A   8      -6.645  48.051  -4.897  0.00  0.00    +0.027 C 
ATOM    101  CG2 ILE A   8      -5.312  47.503  -4.472  0.00  0.00    +0.002 C 
BRANCH 100 102
ATOM    102  CG1 ILE A   8      -7.316  47.173  -5.964  0.00  0.00    +0.002 C 
ATOM    103  CD1 ILE A   8      -6.467  46.957  -7.231  0.00  0.00    +0.000 C 
ENDBRANCH 100 102
ENDBRANCH  65 100
ENDBRANCH  63  65
ENDBRANCH  60  61
BRANCH  60 104
ATOM    104  CB  THR A   7     -11.806  47.671  -5.376  0.00  0.00    +0.137 C 
ATOM    105  CG2 THR A   7     -13.122  48.095  -5.896  0.00  0.00    +0.034 C 
BRANCH 104 106
ATOM    106  OG1 THR A   7     -10.920  47.638  -6.465  0.00  0.00    -0.382 OA
ATOM    107  HG1 THR A   7     -11.262  47.008  -7.148  0.00  0.00    +0.210 HD
ENDBRANCH 104 106
ENDBRANCH  60 104
ENDBRANCH  58  60
ENDBRANCH   1  56
BRANCH   1 108
ATOM    108  CB  GLU A   6     -12.801  52.318  -6.379  0.00  0.00    +0.041 C 
BRANCH 108 109
ATOM    109  CG  GLU A   6     -12.981  53.701  -7.002  0.00  0.00    +0.116 C 
BRANCH 109 110
ATOM    110  CD  GLU A   6     -11.839  54.142  -7.912  0.00  0.00    +0.365 C 
ATOM    111  OE2 GLU A   6     -10.722  53.592  -7.860  0.00  0.00    -0.246 OA
ATOM    112  OE1 GLU A   6     -12.073  55.081  -8.703  0.00  0.00    -0.246 OA
ENDBRANCH 109 110
ENDBRANCH 108 109
ENDBRANCH   1 108
TORSDOF 44
REMARK  Name = ../refined-set-2016/4css/4css_pocket.pdb
REMARK  120 active torsions:
REMARK  status: ('A' for Active; 'I' for Inactive)
REMARK    1  A    between atoms: _1  and  _5
REMARK    2  A    between atoms: _5  and  _6
REMARK    3  A    between atoms: _5  and  _8
REMARK    4  A    between atoms: _8  and  _9
REMARK    5  A    between atoms: _15  and  _17
REMARK    6  A    between atoms: _17  and  _18
REMARK    7  A    between atoms: _22  and  _23
REMARK    8  A    between atoms: _28  and  _30
REMARK    9  A    between atoms: _30  and  _31
REMARK   10  A    between atoms: _30  and  _33
REMARK   11  A    between atoms: _33  and  _34
REMARK   12  A    between atoms: _37  and  _39
REMARK   13  A    between atoms: _39  and  _40
REMARK   14  A    between atoms: _42  and  _44
REMARK   15  A    between atoms: _44  and  _45
REMARK   16  A    between atoms: _47  and  _49
REMARK   17  A    between atoms: _49  and  _50
REMARK   18  A    between atoms: _49  and  _52
REMARK   19  A    between atoms: _52  and  _53
REMARK   20  A    between atoms: _58  and  _60
REMARK   21  A    between atoms: _60  and  _61
REMARK   22  A    between atoms: _60  and  _63
REMARK   23  A    between atoms: _63  and  _64
REMARK   24  A    between atoms: _69  and  _71
REMARK   25  A    between atoms: _71  and  _72
REMARK   26  A    between atoms: _71  and  _74
REMARK   27  A    between atoms: _74  and  _75
REMARK   28  A    between atoms: _78  and  _80
REMARK   29  A    between atoms: _80  and  _81
REMARK   30  A    between atoms: _80  and  _83
REMARK   31  A    between atoms: _83  and  _84
REMARK   32  A    between atoms: _89  and  _90
REMARK   33  A    between atoms: _93  and  _94
REMARK   34  A    between atoms: _99  and  _101
REMARK   35  A    between atoms: _101  and  _102
REMARK   36  A    between atoms: _101  and  _104
REMARK   37  A    between atoms: _104  and  _105
REMARK   38  A    between atoms: _105  and  _106
REMARK   39  A    between atoms: _109  and  _111
REMARK   40  A    between atoms: _111  and  _112
REMARK   41  A    between atoms: _111  and  _114
REMARK   42  A    between atoms: _114  and  _115
REMARK   43  A    between atoms: _118  and  _120
REMARK   44  A    between atoms: _120  and  _121
REMARK   45  A    between atoms: _120  and  _123
REMARK   46  A    between atoms: _123  and  _124
REMARK   47  A    between atoms: _127  and  _129
REMARK   48  A    between atoms: _129  and  _130
REMARK   49  A    between atoms: _129  and  _132
REMARK   50  A    between atoms: _132  and  _133
REMARK   51  A    between atoms: _136  and  _138
REMARK   52  A    between atoms: _138  and  _139
REMARK   53  A    between atoms: _138  and  _141
REMARK   54  A    between atoms: _141  and  _142
REMARK   55  A    between atoms: _145  and  _147
REMARK   56  A    between atoms: _147  and  _148
REMARK   57  A    between atoms: _147  and  _150
REMARK   58  A    between atoms: _150  and  _151
REMARK   59  A    between atoms: _156  and  _157
REMARK   60  A    between atoms: _159  and  _161
REMARK   61  A    between atoms: _161  and  _162
REMARK   62  A    between atoms: _161  and  _164
REMARK   63  A    between atoms: _164  and  _165
REMARK   64  A    between atoms: _170  and  _171
REMARK   65  A    between atoms: _173  and  _175
REMARK   66  A    between atoms: _175  and  _176
REMARK   67  A    between atoms: _175  and  _178
REMARK   68  A    between atoms: _178  and  _179
REMARK   69  A    between atoms: _181  and  _183
REMARK   70  A    between atoms: _183  and  _184
REMARK   71  A    between atoms: _183  and  _186
REMARK   72  A    between atoms: _186  and  _187
REMARK   73  A    between atoms: _187  and  _188
REMARK   74  A    between atoms: _188  and  _189
REMARK   75  A    between atoms: _198  and  _200
REMARK   76  A    between atoms: _200  and  _201
REMARK   77  A    between atoms: _200  and  _203
REMARK   78  A    between atoms: _203  and  _204
REMARK   79  A    between atoms: _204  and  _205
REMARK   80  A    between atoms: _210  and  _212
REMARK   81  A    between atoms: _212  and  _213
REMARK   82  A    between atoms: _212  and  _215
REMARK   83  A    between atoms: _215  and  _216
REMARK   84  A    between atoms: _219  and  _221
REMARK   85  A    between atoms: _221  and  _222
REMARK   86  A    between atoms: _221  and  _224
REMARK   87  A    between atoms: _224  and  _225
REMARK   88  A    between atoms: _230  and  _232
REMARK   89  A    between atoms: _232  and  _233
REMARK   90  A    between atoms: _232  and  _235
REMARK   91  A    between atoms: _235  and  _236
REMARK   92  A    between atoms: _241  and  _243
REMARK   93  A    between atoms: _243  and  _244
REMARK   94  A    between atoms: _243  and  _246
REMARK   95  A    between atoms: _246  and  _247
REMARK   96  A    between atoms: _252  and  _253
REMARK   97  A    between atoms: _255  and  _257
REMARK   98  A    between atoms: _257  and  _258
REMARK   99  A    between atoms: _257  and  _260
REMARK  100  A    between atoms: _260  and  _261
REMARK  101  A    between atoms: _266  and  _268
REMARK  102  A    between atoms: _268  and  _269
REMARK  103  A    between atoms: _268  and  _271
REMARK  104  A    between atoms: _271  and  _272
REMARK  105  A    between atoms: _274  and  _276
REMARK  106  A    between atoms: _276  and  _277
REMARK  107  A    between atoms: _276  and  _279
REMARK  108  A    between atoms: _279  and  _280
REMARK  109  A    between atoms: _283  and  _285
REMARK  110  A    between atoms: _285  and  _286
REMARK  111  A    between atoms: _285  and  _288
REMARK  112  A    between atoms: _288  and  _289
REMARK  113  A    between atoms: _292  and  _294
REMARK  114  A    between atoms: _294  and  _295
REMARK  115  A    between atoms: _294  and  _297
REMARK  116  A    between atoms: _297  and  _298
REMARK  117  A    between atoms: _304  and  _306
REMARK  118  A    between atoms: _306  and  _307
REMARK  119  A    between atoms: _306  and  _309
REMARK  120  A    between atoms: _309  and  _310
REMARK                            x       y       z     vdW  Elec       q    Type
REMARK                         _______ _______ _______ _____ _____    ______ ____
ROOT
ATOM      1  CG  TYR A   1       0.539  55.026  -0.767  0.00  0.00    -0.020 A 
ATOM      2  CD2 TYR A   1       1.422  54.533   0.188  0.00  0.00    -0.001 A 
ATOM      3  CE2 TYR A   1       2.556  55.214   0.561  0.00  0.00    +0.036 A 
ATOM      4  CZ  TYR A   1       2.853  56.389  -0.028  0.00  0.00    +0.134 A 
ATOM      5  CE1 TYR A   1       2.030  56.909  -1.006  0.00  0.00    +0.036 A 
ATOM      6  CD1 TYR A   1       0.870  56.228  -1.373  0.00  0.00    -0.001 A 
ENDROOT
BRANCH   4   7
ATOM      7  OH  TYR A   1       3.995  57.051   0.421  0.00  0.00    -0.506 OA
ATOM      8  HH  TYR A   1       3.739  57.930   0.798  0.00  0.00    +0.292 HD
ENDBRANCH   4   7
BRANCH   1   9
ATOM      9  CB  TYR A   1      -0.727  54.295  -1.111  0.00  0.00    +0.051 C 
BRANCH   9  10
ATOM     10  CA  TYR A   1      -1.762  54.368   0.039  0.00  0.00    +0.137 C 
BRANCH  10  11
ATOM     11  N   TYR A   1      -1.458  53.431   1.115  0.00  0.00    -0.239 NA
ATOM     12  H   TYR A   1      -1.369  52.422   0.881  0.00  0.00    +0.142 HD
ENDBRANCH  10  11
BRANCH  10  13
ATOM     13  C   TYR A   1      -3.169  54.007  -0.437  0.00  0.00    +0.224 C 
ATOM     14  O   TYR A   1      -3.428  52.869  -0.867  0.00  0.00    -0.287 OA
ENDBRANCH  10  13
ENDBRANCH   9  10
ENDBRANCH   1   9
TORSDOF 5
REMARK  Name = ../refined-set-2016/4css/4css_pocket.pdb
REMARK  120 active torsions:
REMARK  status: ('A' for Active; 'I' for Inactive)
REMARK    1  A    between atoms: _1  and  _5
REMARK    2  A    between atoms: _5  and  _6
REMARK    3  A    between atoms: _5  and  _8
REMARK    4  A    between atoms: _8  and  _9
REMARK    5  A    between atoms: _15  and  _17
REMARK    6  A    between atoms: _17  and  _18
REMARK    7  A    between atoms: _22  and  _23
REMARK    8  A    between atoms: _28  and  _30
REMARK    9  A    between atoms: _30  and  _31
REMARK   10  A    between atoms: _30  and  _33
REMARK   11  A    between atoms: _33  and  _34
REMARK   12  A    between atoms: _37  and  _39
REMARK   13  A    between atoms: _39  and  _40
REMARK   14  A    between atoms: _42  and  _44
REMARK   15  A    between atoms: _44  and  _45
REMARK   16  A    between atoms: _47  and  _49
REMARK   17  A    between atoms: _49  and  _50
REMARK   18  A    between atoms: _49  and  _52
REMARK   19  A    between atoms: _52  and  _53
REMARK   20  A    between atoms: _58  and  _60
REMARK   21  A    between atoms: _60  and  _61
REMARK   22  A    between atoms: _60  and  _63
REMARK   23  A    between atoms: _63  and  _64
REMARK   24  A    between atoms: _69  and  _71
REMARK   25  A    between atoms: _71  and  _72
REMARK   26  A    between atoms: _71  and  _74
REMARK   27  A    between atoms: _74  and  _75
REMARK   28  A    between atoms: _78  and  _80
REMARK   29  A    between atoms: _80  and  _81
REMARK   30  A    between atoms: _80  and  _83
REMARK   31  A    between atoms: _83  and  _84
REMARK   32  A    between atoms: _89  and  _90
REMARK   33  A    between atoms: _93  and  _94
REMARK   34  A    between atoms: _99  and  _101
REMARK   35  A    between atoms: _101  and  _102
REMARK   36  A    between atoms: _101  and  _104
REMARK   37  A    between atoms: _104  and  _105
REMARK   38  A    between atoms: _105  and  _106
REMARK   39  A    between atoms: _109  and  _111
REMARK   40  A    between atoms: _111  and  _112
REMARK   41  A    between atoms: _111  and  _114
REMARK   42  A    between atoms: _114  and  _115
REMARK   43  A    between atoms: _118  and  _120
REMARK   44  A    between atoms: _120  and  _121
REMARK   45  A    between atoms: _120  and  _123
REMARK   46  A    between atoms: _123  and  _124
REMARK   47  A    between atoms: _127  and  _129
REMARK   48  A    between atoms: _129  and  _130
REMARK   49  A    between atoms: _129  and  _132
REMARK   50  A    between atoms: _132  and  _133
REMARK   51  A    between atoms: _136  and  _138
REMARK   52  A    between atoms: _138  and  _139
REMARK   53  A    between atoms: _138  and  _141
REMARK   54  A    between atoms: _141  and  _142
REMARK   55  A    between atoms: _145  and  _147
REMARK   56  A    between atoms: _147  and  _148
REMARK   57  A    between atoms: _147  and  _150
REMARK   58  A    between atoms: _150  and  _151
REMARK   59  A    between atoms: _156  and  _157
REMARK   60  A    between atoms: _159  and  _161
REMARK   61  A    between atoms: _161  and  _162
REMARK   62  A    between atoms: _161  and  _164
REMARK   63  A    between atoms: _164  and  _165
REMARK   64  A    between atoms: _170  and  _171
REMARK   65  A    between atoms: _173  and  _175
REMARK   66  A    between atoms: _175  and  _176
REMARK   67  A    between atoms: _175  and  _178
REMARK   68  A    between atoms: _178  and  _179
REMARK   69  A    between atoms: _181  and  _183
REMARK   70  A    between atoms: _183  and  _184
REMARK   71  A    between atoms: _183  and  _186
REMARK   72  A    between atoms: _186  and  _187
REMARK   73  A    between atoms: _187  and  _188
REMARK   74  A    between atoms: _188  and  _189
REMARK   75  A    between atoms: _198  and  _200
REMARK   76  A    between atoms: _200  and  _201
REMARK   77  A    between atoms: _200  and  _203
REMARK   78  A    between atoms: _203  and  _204
REMARK   79  A    between atoms: _204  and  _205
REMARK   80  A    between atoms: _210  and  _212
REMARK   81  A    between atoms: _212  and  _213
REMARK   82  A    between atoms: _212  and  _215
REMARK   83  A    between atoms: _215  and  _216
REMARK   84  A    between atoms: _219  and  _221
REMARK   85  A    between atoms: _221  and  _222
REMARK   86  A    between atoms: _221  and  _224
REMARK   87  A    between atoms: _224  and  _225
REMARK   88  A    between atoms: _230  and  _232
REMARK   89  A    between atoms: _232  and  _233
REMARK   90  A    between atoms: _232  and  _235
REMARK   91  A    between atoms: _235  and  _236
REMARK   92  A    between atoms: _241  and  _243
REMARK   93  A    between atoms: _243  and  _244
REMARK   94  A    between atoms: _243  and  _246
REMARK   95  A    between atoms: _246  and  _247
REMARK   96  A    between atoms: _252  and  _253
REMARK   97  A    between atoms: _255  and  _257
REMARK   98  A    between atoms: _257  and  _258
REMARK   99  A    between atoms: _257  and  _260
REMARK  100  A    between atoms: _260  and  _261
REMARK  101  A    between atoms: _266  and  _268
REMARK  102  A    between atoms: _268  and  _269
REMARK  103  A    between atoms: _268  and  _271
REMARK  104  A    between atoms: _271  and  _272
REMARK  105  A    between atoms: _274  and  _276
REMARK  106  A    between atoms: _276  and  _277
REMARK  107  A    between atoms: _276  and  _279
REMARK  108  A    between atoms: _279  and  _280
REMARK  109  A    between atoms: _283  and  _285
REMARK  110  A    between atoms: _285  and  _286
REMARK  111  A    between atoms: _285  and  _288
REMARK  112  A    between atoms: _288  and  _289
REMARK  113  A    between atoms: _292  and  _294
REMARK  114  A    between atoms: _294  and  _295
REMARK  115  A    between atoms: _294  and  _297
REMARK  116  A    between atoms: _297  and  _298
REMARK  117  A    between atoms: _304  and  _306
REMARK  118  A    between atoms: _306  and  _307
REMARK  119  A    between atoms: _306  and  _309
REMARK  120  A    between atoms: _309  and  _310
REMARK                            x       y       z     vdW  Elec       q    Type
REMARK                         _______ _______ _______ _____ _____    ______ ____
ROOT
ATOM      1  CA  ARG A   2      -5.022  58.534  -6.600  0.00  0.00    +0.137 C 
ENDROOT
BRANCH   1   4
ATOM      2  C   SER A   1      -5.073  57.734  -4.289  0.00  0.00    +0.241 C 
ATOM      3  O   SER A   1      -3.885  57.388  -4.342  0.00  0.00    -0.274 OA
ATOM      4  N   ARG A   2      -5.726  58.198  -5.357  0.00  0.00    -0.298 N 
ATOM      5  H   ARG A   2      -6.757  58.324  -5.307  0.00  0.00    +0.150 HD
BRANCH   2   6
ATOM      6  CA  SER A   1      -5.863  57.653  -3.001  0.00  0.00    +0.174 C 
BRANCH   6   7
ATOM      7  N   SER A   1      -5.383  56.551  -2.186  0.00  0.00    -0.236 NA
ATOM      8  H   SER A   1      -4.381  56.280  -2.255  0.00  0.00    +0.142 HD
ENDBRANCH   6   7
BRANCH   6   9
ATOM      9  CB  SER A   1      -5.664  58.977  -2.231  0.00  0.00    +0.163 C 
BRANCH   9  10
ATOM     10  OG  SER A   1      -6.032  60.072  -3.025  0.00  0.00    -0.380 OA
ATOM     11  H   SER A   1      -5.897  60.909  -2.514  0.00  0.00    +0.211 HD
ENDBRANCH   9  10
ENDBRANCH   6   9
ENDBRANCH   2   6
ENDBRANCH   1   4
BRANCH   1  12
ATOM     12  C   ARG A   2      -4.179  59.783  -6.460  0.00  0.00    +0.227 C 
ATOM     13  O   ARG A   2      -3.283  60.013  -7.258  0.00  0.00    -0.286 OA
ENDBRANCH   1  12
BRANCH   1  14
ATOM     14  CB  ARG A   2      -5.975  58.757  -7.780  0.00  0.00    +0.031 C 
BRANCH  14  15
ATOM     15  CG  ARG A   2      -6.580  57.503  -8.318  0.00  0.00    +0.045 C 
BRANCH  15  16
ATOM     16  CD  ARG A   2      -7.217  57.692  -9.685  0.00  0.00    +0.174 C 
BRANCH  16  17
ATOM     17  NE  ARG A   2      -7.663  56.388 -10.133  0.00  0.00    -0.265 N 
ATOM     18  CZ  ARG A   2      -8.812  55.835  -9.787  0.00  0.00    +0.342 C 
ATOM     19  NH2 ARG A   2      -9.674  56.496  -9.029  0.00  0.00    -0.292 N 
ATOM     20 HH21 ARG A   2      -9.448  57.457  -8.702  0.00  0.00    +0.255 HD
ATOM     21 HH22 ARG A   2     -10.576  56.054  -8.761  0.00  0.00    +0.255 HD
ATOM     22  NH1 ARG A   2      -9.100  54.616 -10.221  0.00  0.00    -0.292 N 
ATOM     23 HH11 ARG A   2     -10.001  54.169  -9.956  0.00  0.00    +0.255 HD
ATOM     24 HH12 ARG A   2      -8.425  54.107 -10.826  0.00  0.00    +0.255 HD
ATOM     25  HE  ARG A   2      -7.038  55.852 -10.768  0.00  0.00    +0.259 HD
ENDBRANCH  16  17
ENDBRANCH  15  16
ENDBRANCH  14  15
ENDBRANCH   1  14
TORSDOF 10
REMARK  Name = ../refined-set-2016/4css/4css_pocket.pdb
REMARK  120 active torsions:
REMARK  status: ('A' for Active; 'I' for Inactive)
REMARK    1  A    between atoms: _1  and  _5
REMARK    2  A    between atoms: _5  and  _6
REMARK    3  A    between atoms: _5  and  _8
REMARK    4  A    between atoms: _8  and  _9
REMARK    5  A    between atoms: _15  and  _17
REMARK    6  A    between atoms: _17  and  _18
REMARK    7  A    between atoms: _22  and  _23
REMARK    8  A    between atoms: _28  and  _30
REMARK    9  A    between atoms: _30  and  _31
REMARK   10  A    between atoms: _30  and  _33
REMARK   11  A    between atoms: _33  and  _34
REMARK   12  A    between atoms: _37  and  _39
REMARK   13  A    between atoms: _39  and  _40
REMARK   14  A    between atoms: _42  and  _44
REMARK   15  A    between atoms: _44  and  _45
REMARK   16  A    between atoms: _47  and  _49
REMARK   17  A    between atoms: _49  and  _50
REMARK   18  A    between atoms: _49  and  _52
REMARK   19  A    between atoms: _52  and  _53
REMARK   20  A    between atoms: _58  and  _60
REMARK   21  A    between atoms: _60  and  _61
REMARK   22  A    between atoms: _60  and  _63
REMARK   23  A    between atoms: _63  and  _64
REMARK   24  A    between atoms: _69  and  _71
REMARK   25  A    between atoms: _71  and  _72
REMARK   26  A    between atoms: _71  and  _74
REMARK   27  A    between atoms: _74  and  _75
REMARK   28  A    between atoms: _78  and  _80
REMARK   29  A    between atoms: _80  and  _81
REMARK   30  A    between atoms: _80  and  _83
REMARK   31  A    between atoms: _83  and  _84
REMARK   32  A    between atoms: _89  and  _90
REMARK   33  A    between atoms: _93  and  _94
REMARK   34  A    between atoms: _99  and  _101
REMARK   35  A    between atoms: _101  and  _102
REMARK   36  A    between atoms: _101  and  _104
REMARK   37  A    between atoms: _104  and  _105
REMARK   38  A    between atoms: _105  and  _106
REMARK   39  A    between atoms: _109  and  _111
REMARK   40  A    between atoms: _111  and  _112
REMARK   41  A    between atoms: _111  and  _114
REMARK   42  A    between atoms: _114  and  _115
REMARK   43  A    between atoms: _118  and  _120
REMARK   44  A    between atoms: _120  and  _121
REMARK   45  A    between atoms: _120  and  _123
REMARK   46  A    between atoms: _123  and  _124
REMARK   47  A    between atoms: _127  and  _129
REMARK   48  A    between atoms: _129  and  _130
REMARK   49  A    between atoms: _129  and  _132
REMARK   50  A    between atoms: _132  and  _133
REMARK   51  A    between atoms: _136  and  _138
REMARK   52  A    between atoms: _138  and  _139
REMARK   53  A    between atoms: _138  and  _141
REMARK   54  A    between atoms: _141  and  _142
REMARK   55  A    between atoms: _145  and  _147
REMARK   56  A    between atoms: _147  and  _148
REMARK   57  A    between atoms: _147  and  _150
REMARK   58  A    between atoms: _150  and  _151
REMARK   59  A    between atoms: _156  and  _157
REMARK   60  A    between atoms: _159  and  _161
REMARK   61  A    between atoms: _161  and  _162
REMARK   62  A    between atoms: _161  and  _164
REMARK   63  A    between atoms: _164  and  _165
REMARK   64  A    between atoms: _170  and  _171
REMARK   65  A    between atoms: _173  and  _175
REMARK   66  A    between atoms: _175  and  _176
REMARK   67  A    between atoms: _175  and  _178
REMARK   68  A    between atoms: _178  and  _179
REMARK   69  A    between atoms: _181  and  _183
REMARK   70  A    between atoms: _183  and  _184
REMARK   71  A    between atoms: _183  and  _186
REMARK   72  A    between atoms: _186  and  _187
REMARK   73  A    between atoms: _187  and  _188
REMARK   74  A    between atoms: _188  and  _189
REMARK   75  A    between atoms: _198  and  _200
REMARK   76  A    between atoms: _200  and  _201
REMARK   77  A    between atoms: _200  and  _203
REMARK   78  A    between atoms: _203  and  _204
REMARK   79  A    between atoms: _204  and  _205
REMARK   80  A    between atoms: _210  and  _212
REMARK   81  A    between atoms: _212  and  _213
REMARK   82  A    between atoms: _212  and  _215
REMARK   83  A    between atoms: _215  and  _216
REMARK   84  A    between atoms: _219  and  _221
REMARK   85  A    between atoms: _221  and  _222
REMARK   86  A    between atoms: _221  and  _224
REMARK   87  A    between atoms: _224  and  _225
REMARK   88  A    between atoms: _230  and  _232
REMARK   89  A    between atoms: _232  and  _233
REMARK   90  A    between atoms: _232  and  _235
REMARK   91  A    between atoms: _235  and  _236
REMARK   92  A    between atoms: _241  and  _243
REMARK   93  A    between atoms: _243  and  _244
REMARK   94  A    between atoms: _243  and  _246
REMARK   95  A    between atoms: _246  and  _247
REMARK   96  A    between atoms: _252  and  _253
REMARK   97  A    between atoms: _255  and  _257
REMARK   98  A    between atoms: _257  and  _258
REMARK   99  A    between atoms: _257  and  _260
REMARK  100  A    between atoms: _260  and  _261
REMARK  101  A    between atoms: _266  and  _268
REMARK  102  A    between atoms: _268  and  _269
REMARK  103  A    between atoms: _268  and  _271
REMARK  104  A    between atoms: _271  and  _272
REMARK  105  A    between atoms: _274  and  _276
REMARK  106  A    between atoms: _276  and  _277
REMARK  107  A    between atoms: _276  and  _279
REMARK  108  A    between atoms: _279  and  _280
REMARK  109  A    between atoms: _283  and  _285
REMARK  110  A    between atoms: _285  and  _286
REMARK  111  A    between atoms: _285  and  _288
REMARK  112  A    between atoms: _288  and  _289
REMARK  113  A    between atoms: _292  and  _294
REMARK  114  A    between atoms: _294  and  _295
REMARK  115  A    between atoms: _294  and  _297
REMARK  116  A    between atoms: _297  and  _298
REMARK  117  A    between atoms: _304  and  _306
REMARK  118  A    between atoms: _306  and  _307
REMARK  119  A    between atoms: _306  and  _309
REMARK  120  A    between atoms: _309  and  _310
REMARK                            x       y       z     vdW  Elec       q    Type
REMARK                         _______ _______ _______ _____ _____    ______ ____
ROOT
ATOM      1  CA  TYR A   5      -6.069  42.524  -3.821  0.00  0.00    +0.153 C 
ENDROOT
BRANCH   1   2
ATOM      2  C   TYR A   5      -5.544  41.286  -4.545  0.00  0.00    +0.241 C 
ATOM      3  N   ASN A   6      -4.233  41.257  -4.803  0.00  0.00    -0.297 N 
ATOM      4  H   ASN A   6      -3.648  42.042  -4.453  0.00  0.00    +0.150 HD
ATOM      5  O   TYR A   5      -6.316  40.412  -4.929  0.00  0.00    -0.273 OA
BRANCH   3   6
ATOM      6  CA  ASN A   6      -3.578  40.194  -5.543  0.00  0.00    +0.158 C 
BRANCH   6   7
ATOM      7  C   ASN A   6      -2.237  39.910  -4.889  0.00  0.00    +0.241 C 
ATOM      8  O   ASN A   6      -2.015  40.326  -3.749  0.00  0.00    -0.273 OA
ATOM      9  N   SER A   7      -1.343  39.214  -5.581  0.00  0.00    -0.295 N 
ATOM     10  H   SER A   7      -1.555  38.925  -6.557  0.00  0.00    +0.150 HD
BRANCH   9  11
ATOM     11  CA  SER A   7      -0.076  38.855  -4.985  0.00  0.00    +0.178 C 
BRANCH  11  12
ATOM     12  C   SER A   7       1.101  39.737  -5.431  0.00  0.00    +0.243 C 
ATOM     13  O   SER A   7       2.251  39.393  -5.197  0.00  0.00    -0.273 OA
ATOM     14  N   ASP A   8       0.821  40.884  -6.028  0.00  0.00    -0.296 N 
ATOM     15  H   ASP A   8      -0.172  41.142  -6.198  0.00  0.00    +0.150 HD
BRANCH  14  16
ATOM     16  CA  ASP A   8       1.872  41.786  -6.449  0.00  0.00    +0.160 C 
BRANCH  16  17
ATOM     17  C   ASP A   8       2.811  42.106  -5.286  0.00  0.00    +0.241 C 
ATOM     18  O   ASP A   8       2.388  42.396  -4.164  0.00  0.00    -0.273 OA
ATOM     19  N   ASP A   9       4.100  42.124  -5.590  0.00  0.00    -0.297 N 
ATOM     20  H   ASP A   9       4.388  41.916  -6.567  0.00  0.00    +0.150 HD
BRANCH  19  21
ATOM     21  CA  ASP A   9       5.127  42.425  -4.603  0.00  0.00    +0.160 C 
BRANCH  21  22
ATOM     22  C   ASP A   9       6.286  43.045  -5.369  0.00  0.00    +0.241 C 
ATOM     23  N   PHE A  10       6.301  44.373  -5.429  0.00  0.00    -0.298 N 
ATOM     24  H   PHE A  10       5.676  44.914  -4.798  0.00  0.00    +0.150 HD
ATOM     25  O   ASP A   9       7.102  42.342  -5.961  0.00  0.00    -0.273 OA
BRANCH  23  26
ATOM     26  CA  PHE A  10       7.166  45.091  -6.351  0.00  0.00    +0.141 C 
BRANCH  26  27
ATOM     27  C   PHE A  10       8.153  45.970  -5.601  0.00  0.00    +0.227 C 
ATOM     28  O   PHE A  10       7.856  46.527  -4.554  0.00  0.00    -0.286 OA
ENDBRANCH  26  27
BRANCH  26  29
ATOM     29  CB  PHE A  10       6.313  45.981  -7.256  0.00  0.00    +0.054 C 
BRANCH  29  30
ATOM     30  CG  PHE A  10       5.377  45.238  -8.153  0.00  0.00    -0.020 A 
ATOM     31  CD2 PHE A  10       4.075  45.691  -8.308  0.00  0.00    -0.004 A 
ATOM     32  CE2 PHE A  10       3.204  45.078  -9.196  0.00  0.00    -0.000 A 
ATOM     33  CZ  PHE A  10       3.619  43.971  -9.905  0.00  0.00    -0.000 A 
ATOM     34  CE1 PHE A  10       4.904  43.502  -9.752  0.00  0.00    -0.000 A 
ATOM     35  CD1 PHE A  10       5.793  44.138  -8.883  0.00  0.00    -0.004 A 
ENDBRANCH  29  30
ENDBRANCH  26  29
ENDBRANCH  23  26
ENDBRANCH  21  22
BRANCH  21  36
ATOM     36  CB  ASP A   9       5.546  41.142  -3.895  0.00  0.00    +0.143 C 
BRANCH  36  37
ATOM     37  CG  ASP A   9       6.543  41.350  -2.811  0.00  0.00    +0.367 C 
ATOM     38  OD2 ASP A   9       6.816  40.349  -2.129  0.00  0.00    -0.246 OA
ATOM     39  OD1 ASP A   9       7.071  42.422  -2.611  0.00  0.00    -0.246 OA
ENDBRANCH  36  37
ENDBRANCH  21  36
ENDBRANCH  19  21
ENDBRANCH  16  17
BRANCH  16  40
ATOM     40  CB  ASP A   8       1.289  43.086  -6.979  0.00  0.00    +0.143 C 
BRANCH  40  41
ATOM     41  CG  ASP A   8       0.534  42.936  -8.296  0.00  0.00    +0.367 C 
ATOM     42  OD2 ASP A   8      -0.115  43.963  -8.684  0.00  0.00    -0.246 OA
ATOM     43  OD1 ASP A   8       0.609  41.873  -8.933  0.00  0.00    -0.246 OA
ENDBRANCH  40  41
ENDBRANCH  16  40
ENDBRANCH  14  16
ENDBRANCH  11  12
BRANCH  11  44
ATOM     44  CB  SER A   7       0.214  37.376  -5.200  0.00  0.00    +0.166 C 
BRANCH  44  45
ATOM     45  OG  SER A   7      -0.702  36.566  -4.445  0.00  0.00    -0.380 OA
ATOM     46  H   SER A   7      -1.628  36.758  -4.737  0.00  0.00    +0.211 HD
ENDBRANCH  44  45
ENDBRANCH  11  44
ENDBRANCH   9  11
ENDBRANCH   6   7
BRANCH   6  47
ATOM     47  CB  ASN A   6      -3.469  40.530  -7.038  0.00  0.00    +0.114 C 
BRANCH  47  48
ATOM     48  CG  ASN A   6      -2.631  41.768  -7.298  0.00  0.00    +0.222 C 
ATOM     49  OD1 ASN A   6      -1.755  42.086  -6.515  0.00  0.00    -0.275 OA
ATOM     50  ND2 ASN A   6      -2.880  42.454  -8.403  0.00  0.00    -0.329 N 
ATOM     51 HD21 ASN A   6      -2.317  43.299  -8.628  0.00  0.00    +0.145 HD
ATOM     52 HD22 ASN A   6      -3.638  42.148  -9.045  0.00  0.00    +0.145 HD
ENDBRANCH  47  48
ENDBRANCH   6  47
ENDBRANCH   3   6
ENDBRANCH   1   2
BRANCH   1  55
ATOM     53  C   ASN A   4      -5.764  42.923  -1.441  0.00  0.00    +0.241 C 
ATOM     54  O   ASN A   4      -6.834  42.420  -1.139  0.00  0.00    -0.273 OA
ATOM     55  N   TYR A   5      -5.272  42.885  -2.668  0.00  0.00    -0.297 N 
ATOM     56  H   TYR A   5      -4.270  43.125  -2.810  0.00  0.00    +0.150 HD
BRANCH  53  57
ATOM     57  CA  ASN A   4      -4.908  43.579  -0.386  0.00  0.00    +0.158 C 
BRANCH  57  60
ATOM     58  C   ASN A   3      -2.636  44.210  -1.047  0.00  0.00    +0.241 C 
ATOM     59  O   ASN A   3      -2.147  43.160  -0.629  0.00  0.00    -0.273 OA
ATOM     60  N   ASN A   4      -3.924  44.513  -0.938  0.00  0.00    -0.297 N 
ATOM     61  H   ASN A   4      -4.246  45.449  -1.257  0.00  0.00    +0.150 HD
BRANCH  58  62
ATOM     62  CA  ASN A   3      -1.744  45.271  -1.714  0.00  0.00    +0.158 C 
BRANCH  62  64
ATOM     63  C   THR A   2       0.642  45.641  -1.891  0.00  0.00    +0.243 C 
ATOM     64  N   ASN A   3      -0.376  44.789  -1.806  0.00  0.00    -0.297 N 
ATOM     65  H   ASN A   3      -0.191  43.766  -1.805  0.00  0.00    +0.150 HD
ATOM     66  O   THR A   2       0.463  46.852  -1.883  0.00  0.00    -0.273 OA
BRANCH  63  67
ATOM     67  CA  THR A   2       2.056  45.060  -1.984  0.00  0.00    +0.176 C 
BRANCH  67  69
ATOM     68  C   GLN A   1       3.997  46.373  -2.751  0.00  0.00    +0.238 C 
ATOM     69  N   THR A   2       2.997  46.168  -1.894  0.00  0.00    -0.295 N 
ATOM     70  H   THR A   2       2.881  46.842  -1.111  0.00  0.00    +0.150 HD
ATOM     71  O   GLN A   1       4.323  45.587  -3.642  0.00  0.00    -0.274 OA
BRANCH  68  72
ATOM     72  CA  GLN A   1       4.729  47.694  -2.542  0.00  0.00    +0.145 C 
BRANCH  72  73
ATOM     73  N   GLN A   1       6.152  47.484  -2.419  0.00  0.00    -0.238 NA
ATOM     74  H   GLN A   1       6.669  47.109  -3.240  0.00  0.00    +0.142 HD
ENDBRANCH  72  73
BRANCH  72  75
ATOM     75  CB  GLN A   1       4.424  48.648  -3.701  0.00  0.00    +0.036 C 
BRANCH  75  76
ATOM     76  CG  GLN A   1       2.926  48.847  -3.941  0.00  0.00    +0.087 C 
BRANCH  76  77
ATOM     77  CD  GLN A   1       2.436  48.203  -5.209  0.00  0.00    +0.219 C 
ATOM     78  NE2 GLN A   1       1.235  47.634  -5.154  0.00  0.00    -0.329 N 
ATOM     79 HE21 GLN A   1       0.689  47.656  -4.269  0.00  0.00    +0.145 HD
ATOM     80 HE22 GLN A   1       0.842  47.167  -5.996  0.00  0.00    +0.145 HD
ATOM     81  OE1 GLN A   1       3.122  48.205  -6.232  0.00  0.00    -0.275 OA
ENDBRANCH  76  77
ENDBRANCH  75  76
ENDBRANCH  72  75
ENDBRANCH  68  72
ENDBRANCH  67  69
BRANCH  67  82
ATOM     82  CB  THR A   2       2.299  44.069  -0.836  0.00  0.00    +0.137 C 
ATOM     83  CG2 THR A   2       3.648  43.388  -0.969  0.00  0.00    +0.034 C 
BRANCH  82  84
ATOM     84  OG1 THR A   2       2.245  44.772   0.409  0.00  0.00    -0.382 OA
ATOM     85  HG1 THR A   2       2.401  44.137   1.152  0.00  0.00    +0.210 HD
ENDBRANCH  82  84
ENDBRANCH  67  82
ENDBRANCH  63  67
ENDBRANCH  62  64
BRANCH  62  86
ATOM     86  CB  ASN A   3      -2.271  45.660  -3.100  0.00  0.00    +0.114 C 
BRANCH  86  87
ATOM     87  CG  ASN A   3      -2.265  44.485  -4.055  0.00  0.00    +0.222 C 
ATOM     88  OD1 ASN A   3      -2.665  43.393  -3.669  0.00  0.00    -0.275 OA
ATOM     89  ND2 ASN A   3      -1.809  44.685  -5.276  0.00  0.00    -0.329 N 
ATOM     90 HD21 ASN A   3      -1.480  45.630  -5.560  0.00  0.00    +0.145 HD
ATOM     91 HD22 ASN A   3      -1.779  43.898  -5.955  0.00  0.00    +0.145 HD
ENDBRANCH  86  87
ENDBRANCH  62  86
ENDBRANCH  58  62
ENDBRANCH  57  60
BRANCH  57  92
ATOM     92  CB  ASN A   4      -5.813  44.274   0.625  0.00  0.00    +0.114 C 
BRANCH  92  93
ATOM     93  CG  ASN A   4      -6.744  45.252  -0.005  0.00  0.00    +0.222 C 
ATOM     94  ND2 ASN A   4      -7.769  45.660   0.751  0.00  0.00    -0.329 N 
ATOM     95 HD21 ASN A   4      -7.892  45.277   1.710  0.00  0.00    +0.145 HD
ATOM     96 HD22 ASN A   4      -8.443  46.360   0.380  0.00  0.00    +0.145 HD
ATOM     97  OD1 ASN A   4      -6.547  45.668  -1.144  0.00  0.00    -0.275 OA
ENDBRANCH  92  93
ENDBRANCH  57  92
ENDBRANCH  53  57
ENDBRANCH   1  55
BRANCH   1  98
ATOM     98  CB  TYR A   5      -6.131  43.714  -4.769  0.00  0.00    +0.055 C 
BRANCH  98  99
ATOM     99  CG  TYR A   5      -6.992  43.490  -5.961  0.00  0.00    -0.020 A 
ATOM    100  CD2 TYR A   5      -8.383  43.449  -5.830  0.00  0.00    -0.001 A 
ATOM    101  CE2 TYR A   5      -9.196  43.250  -6.895  0.00  0.00    +0.036 A 
ATOM    102  CZ  TYR A   5      -8.640  43.093  -8.130  0.00  0.00    +0.134 A 
ATOM    103  CE1 TYR A   5      -7.261  43.126  -8.314  0.00  0.00    +0.036 A 
ATOM    104  CD1 TYR A   5      -6.436  43.329  -7.213  0.00  0.00    -0.001 A 
BRANCH 102 105
ATOM    105  OH  TYR A   5      -9.482  42.889  -9.186  0.00  0.00    -0.506 OA
ATOM    106  HH  TYR A   5     -10.419  42.897  -8.866  0.00  0.00    +0.292 HD
ENDBRANCH 102 105
ENDBRANCH  98  99
ENDBRANCH   1  98
TORSDOF 42
REMARK  Name = ../refined-set-2016/4css/4css_pocket.pdb
REMARK  120 active torsions:
REMARK  status: ('A' for Active; 'I' for Inactive)
REMARK    1  A    between atoms: _1  and  _5
REMARK    2  A    between atoms: _5  and  _6
REMARK    3  A    between atoms: _5  and  _8
REMARK    4  A    between atoms: _8  and  _9
REMARK    5  A    between atoms: _15  and  _17
REMARK    6  A    between atoms: _17  and  _18
REMARK    7  A    between atoms: _22  and  _23
REMARK    8  A    between atoms: _28  and  _30
REMARK    9  A    between atoms: _30  and  _31
REMARK   10  A    between atoms: _30  and  _33
REMARK   11  A    between atoms: _33  and  _34
REMARK   12  A    between atoms: _37  and  _39
REMARK   13  A    between atoms: _39  and  _40
REMARK   14  A    between atoms: _42  and  _44
REMARK   15  A    between atoms: _44  and  _45
REMARK   16  A    between atoms: _47  and  _49
REMARK   17  A    between atoms: _49  and  _50
REMARK   18  A    between atoms: _49  and  _52
REMARK   19  A    between atoms: _52  and  _53
REMARK   20  A    between atoms: _58  and  _60
REMARK   21  A    between atoms: _60  and  _61
REMARK   22  A    between atoms: _60  and  _63
REMARK   23  A    between atoms: _63  and  _64
REMARK   24  A    between atoms: _69  and  _71
REMARK   25  A    between atoms: _71  and  _72
REMARK   26  A    between atoms: _71  and  _74
REMARK   27  A    between atoms: _74  and  _75
REMARK   28  A    between atoms: _78  and  _80
REMARK   29  A    between atoms: _80  and  _81
REMARK   30  A    between atoms: _80  and  _83
REMARK   31  A    between atoms: _83  and  _84
REMARK   32  A    between atoms: _89  and  _90
REMARK   33  A    between atoms: _93  and  _94
REMARK   34  A    between atoms: _99  and  _101
REMARK   35  A    between atoms: _101  and  _102
REMARK   36  A    between atoms: _101  and  _104
REMARK   37  A    between atoms: _104  and  _105
REMARK   38  A    between atoms: _105  and  _106
REMARK   39  A    between atoms: _109  and  _111
REMARK   40  A    between atoms: _111  and  _112
REMARK   41  A    between atoms: _111  and  _114
REMARK   42  A    between atoms: _114  and  _115
REMARK   43  A    between atoms: _118  and  _120
REMARK   44  A    between atoms: _120  and  _121
REMARK   45  A    between atoms: _120  and  _123
REMARK   46  A    between atoms: _123  and  _124
REMARK   47  A    between atoms: _127  and  _129
REMARK   48  A    between atoms: _129  and  _130
REMARK   49  A    between atoms: _129  and  _132
REMARK   50  A    between atoms: _132  and  _133
REMARK   51  A    between atoms: _136  and  _138
REMARK   52  A    between atoms: _138  and  _139
REMARK   53  A    between atoms: _138  and  _141
REMARK   54  A    between atoms: _141  and  _142
REMARK   55  A    between atoms: _145  and  _147
REMARK   56  A    between atoms: _147  and  _148
REMARK   57  A    between atoms: _147  and  _150
REMARK   58  A    between atoms: _150  and  _151
REMARK   59  A    between atoms: _156  and  _157
REMARK   60  A    between atoms: _159  and  _161
REMARK   61  A    between atoms: _161  and  _162
REMARK   62  A    between atoms: _161  and  _164
REMARK   63  A    between atoms: _164  and  _165
REMARK   64  A    between atoms: _170  and  _171
REMARK   65  A    between atoms: _173  and  _175
REMARK   66  A    between atoms: _175  and  _176
REMARK   67  A    between atoms: _175  and  _178
REMARK   68  A    between atoms: _178  and  _179
REMARK   69  A    between atoms: _181  and  _183
REMARK   70  A    between atoms: _183  and  _184
REMARK   71  A    between atoms: _183  and  _186
REMARK   72  A    between atoms: _186  and  _187
REMARK   73  A    between atoms: _187  and  _188
REMARK   74  A    between atoms: _188  and  _189
REMARK   75  A    between atoms: _198  and  _200
REMARK   76  A    between atoms: _200  and  _201
REMARK   77  A    between atoms: _200  and  _203
REMARK   78  A    between atoms: _203  and  _204
REMARK   79  A    between atoms: _204  and  _205
REMARK   80  A    between atoms: _210  and  _212
REMARK   81  A    between atoms: _212  and  _213
REMARK   82  A    between atoms: _212  and  _215
REMARK   83  A    between atoms: _215  and  _216
REMARK   84  A    between atoms: _219  and  _221
REMARK   85  A    between atoms: _221  and  _222
REMARK   86  A    between atoms: _221  and  _224
REMARK   87  A    between atoms: _224  and  _225
REMARK   88  A    between atoms: _230  and  _232
REMARK   89  A    between atoms: _232  and  _233
REMARK   90  A    between atoms: _232  and  _235
REMARK   91  A    between atoms: _235  and  _236
REMARK   92  A    between atoms: _241  and  _243
REMARK   93  A    between atoms: _243  and  _244
REMARK   94  A    between atoms: _243  and  _246
REMARK   95  A    between atoms: _246  and  _247
REMARK   96  A    between atoms: _252  and  _253
REMARK   97  A    between atoms: _255  and  _257
REMARK   98  A    between atoms: _257  and  _258
REMARK   99  A    between atoms: _257  and  _260
REMARK  100  A    between atoms: _260  and  _261
REMARK  101  A    between atoms: _266  and  _268
REMARK  102  A    between atoms: _268  and  _269
REMARK  103  A    between atoms: _268  and  _271
REMARK  104  A    between atoms: _271  and  _272
REMARK  105  A    between atoms: _274  and  _276
REMARK  106  A    between atoms: _276  and  _277
REMARK  107  A    between atoms: _276  and  _279
REMARK  108  A    between atoms: _279  and  _280
REMARK  109  A    between atoms: _283  and  _285
REMARK  110  A    between atoms: _285  and  _286
REMARK  111  A    between atoms: _285  and  _288
REMARK  112  A    between atoms: _288  and  _289
REMARK  113  A    between atoms: _292  and  _294
REMARK  114  A    between atoms: _294  and  _295
REMARK  115  A    between atoms: _294  and  _297
REMARK  116  A    between atoms: _297  and  _298
REMARK  117  A    between atoms: _304  and  _306
REMARK  118  A    between atoms: _306  and  _307
REMARK  119  A    between atoms: _306  and  _309
REMARK  120  A    between atoms: _309  and  _310
REMARK                            x       y       z     vdW  Elec       q    Type
REMARK                         _______ _______ _______ _____ _____    ______ ____
ROOT
ATOM      1  CB  PHE A   1       9.659  51.601  -6.080  0.00  0.00    +0.051 C 
ENDROOT
BRANCH   1   2
ATOM      2  CG  PHE A   1       8.373  51.277  -6.792  0.00  0.00    -0.020 A 
ATOM      3  CD2 PHE A   1       7.573  50.188  -6.431  0.00  0.00    -0.004 A 
ATOM      4  CE2 PHE A   1       6.386  49.923  -7.125  0.00  0.00    -0.000 A 
ATOM      5  CZ  PHE A   1       6.005  50.751  -8.173  0.00  0.00    -0.000 A 
ATOM      6  CE1 PHE A   1       6.764  51.838  -8.524  0.00  0.00    -0.000 A 
ATOM      7  CD1 PHE A   1       7.946  52.104  -7.822  0.00  0.00    -0.004 A 
ENDBRANCH   1   2
BRANCH   1   8
ATOM      8  CA  PHE A   1      10.805  50.644  -6.409  0.00  0.00    +0.137 C 
BRANCH   8   9
ATOM      9  N   PHE A   1      10.542  49.332  -5.826  0.00  0.00    -0.239 NA
ATOM     10  H   PHE A   1      10.341  49.291  -4.806  0.00  0.00    +0.142 HD
ENDBRANCH   8   9
BRANCH   8  11
ATOM     11  C   PHE A   1      12.112  51.083  -5.780  0.00  0.00    +0.224 C 
ATOM     12  O   PHE A   1      12.163  51.339  -4.565  0.00  0.00    -0.287 OA
ENDBRANCH   8  11
ENDBRANCH   1   8
TORSDOF 4
REMARK  Name = ../refined-set-2016/4css/4css_pocket.pdb
REMARK  120 active torsions:
REMARK  status: ('A' for Active; 'I' for Inactive)
REMARK    1  A    between atoms: _1  and  _5
REMARK    2  A    between atoms: _5  and  _6
REMARK    3  A    between atoms: _5  and  _8
REMARK    4  A    between atoms: _8  and  _9
REMARK    5  A    between atoms: _15  and  _17
REMARK    6  A    between atoms: _17  and  _18
REMARK    7  A    between atoms: _22  and  _23
REMARK    8  A    between atoms: _28  and  _30
REMARK    9  A    between atoms: _30  and  _31
REMARK   10  A    between atoms: _30  and  _33
REMARK   11  A    between atoms: _33  and  _34
REMARK   12  A    between atoms: _37  and  _39
REMARK   13  A    between atoms: _39  and  _40
REMARK   14  A    between atoms: _42  and  _44
REMARK   15  A    between atoms: _44  and  _45
REMARK   16  A    between atoms: _47  and  _49
REMARK   17  A    between atoms: _49  and  _50
REMARK   18  A    between atoms: _49  and  _52
REMARK   19  A    between atoms: _52  and  _53
REMARK   20  A    between atoms: _58  and  _60
REMARK   21  A    between atoms: _60  and  _61
REMARK   22  A    between atoms: _60  and  _63
REMARK   23  A    between atoms: _63  and  _64
REMARK   24  A    between atoms: _69  and  _71
REMARK   25  A    between atoms: _71  and  _72
REMARK   26  A    between atoms: _71  and  _74
REMARK   27  A    between atoms: _74  and  _75
REMARK   28  A    between atoms: _78  and  _80
REMARK   29  A    between atoms: _80  and  _81
REMARK   30  A    between atoms: _80  and  _83
REMARK   31  A    between atoms: _83  and  _84
REMARK   32  A    between atoms: _89  and  _90
REMARK   33  A    between atoms: _93  and  _94
REMARK   34  A    between atoms: _99  and  _101
REMARK   35  A    between atoms: _101  and  _102
REMARK   36  A    between atoms: _101  and  _104
REMARK   37  A    between atoms: _104  and  _105
REMARK   38  A    between atoms: _105  and  _106
REMARK   39  A    between atoms: _109  and  _111
REMARK   40  A    between atoms: _111  and  _112
REMARK   41  A    between atoms: _111  and  _114
REMARK   42  A    between atoms: _114  and  _115
REMARK   43  A    between atoms: _118  and  _120
REMARK   44  A    between atoms: _120  and  _121
REMARK   45  A    between atoms: _120  and  _123
REMARK   46  A    between atoms: _123  and  _124
REMARK   47  A    between atoms: _127  and  _129
REMARK   48  A    between atoms: _129  and  _130
REMARK   49  A    between atoms: _129  and  _132
REMARK   50  A    between atoms: _132  and  _133
REMARK   51  A    between atoms: _136  and  _138
REMARK   52  A    between atoms: _138  and  _139
REMARK   53  A    between atoms: _138  and  _141
REMARK   54  A    between atoms: _141  and  _142
REMARK   55  A    between atoms: _145  and  _147
REMARK   56  A    between atoms: _147  and  _148
REMARK   57  A    between atoms: _147  and  _150
REMARK   58  A    between atoms: _150  and  _151
REMARK   59  A    between atoms: _156  and  _157
REMARK   60  A    between atoms: _159  and  _161
REMARK   61  A    between atoms: _161  and  _162
REMARK   62  A    between atoms: _161  and  _164
REMARK   63  A    between atoms: _164  and  _165
REMARK   64  A    between atoms: _170  and  _171
REMARK   65  A    between atoms: _173  and  _175
REMARK   66  A    between atoms: _175  and  _176
REMARK   67  A    between atoms: _175  and  _178
REMARK   68  A    between atoms: _178  and  _179
REMARK   69  A    between atoms: _181  and  _183
REMARK   70  A    between atoms: _183  and  _184
REMARK   71  A    between atoms: _183  and  _186
REMARK   72  A    between atoms: _186  and  _187
REMARK   73  A    between atoms: _187  and  _188
REMARK   74  A    between atoms: _188  and  _189
REMARK   75  A    between atoms: _198  and  _200
REMARK   76  A    between atoms: _200  and  _201
REMARK   77  A    between atoms: _200  and  _203
REMARK   78  A    between atoms: _203  and  _204
REMARK   79  A    between atoms: _204  and  _205
REMARK   80  A    between atoms: _210  and  _212
REMARK   81  A    between atoms: _212  and  _213
REMARK   82  A    between atoms: _212  and  _215
REMARK   83  A    between atoms: _215  and  _216
REMARK   84  A    between atoms: _219  and  _221
REMARK   85  A    between atoms: _221  and  _222
REMARK   86  A    between atoms: _221  and  _224
REMARK   87  A    between atoms: _224  and  _225
REMARK   88  A    between atoms: _230  and  _232
REMARK   89  A    between atoms: _232  and  _233
REMARK   90  A    between atoms: _232  and  _235
REMARK   91  A    between atoms: _235  and  _236
REMARK   92  A    between atoms: _241  and  _243
REMARK   93  A    between atoms: _243  and  _244
REMARK   94  A    between atoms: _243  and  _246
REMARK   95  A    between atoms: _246  and  _247
REMARK   96  A    between atoms: _252  and  _253
REMARK   97  A    between atoms: _255  and  _257
REMARK   98  A    between atoms: _257  and  _258
REMARK   99  A    between atoms: _257  and  _260
REMARK  100  A    between atoms: _260  and  _261
REMARK  101  A    between atoms: _266  and  _268
REMARK  102  A    between atoms: _268  and  _269
REMARK  103  A    between atoms: _268  and  _271
REMARK  104  A    between atoms: _271  and  _272
REMARK  105  A    between atoms: _274  and  _276
REMARK  106  A    between atoms: _276  and  _277
REMARK  107  A    between atoms: _276  and  _279
REMARK  108  A    between atoms: _279  and  _280
REMARK  109  A    between atoms: _283  and  _285
REMARK  110  A    between atoms: _285  and  _286
REMARK  111  A    between atoms: _285  and  _288
REMARK  112  A    between atoms: _288  and  _289
REMARK  113  A    between atoms: _292  and  _294
REMARK  114  A    between atoms: _294  and  _295
REMARK  115  A    between atoms: _294  and  _297
REMARK  116  A    between atoms: _297  and  _298
REMARK  117  A    between atoms: _304  and  _306
REMARK  118  A    between atoms: _306  and  _307
REMARK  119  A    between atoms: _306  and  _309
REMARK  120  A    between atoms: _309  and  _310
REMARK                            x       y       z     vdW  Elec       q    Type
REMARK                         _______ _______ _______ _____ _____    ______ ____
ROOT
ATOM      1  O   HOH     1       2.816  48.705  -8.957  0.00  0.00    +0.000 OA
ENDROOT
TORSDOF 0
REMARK  Name = ../refined-set-2016/4css/4css_pocket.pdb
REMARK  120 active torsions:
REMARK  status: ('A' for Active; 'I' for Inactive)
REMARK    1  A    between atoms: _1  and  _5
REMARK    2  A    between atoms: _5  and  _6
REMARK    3  A    between atoms: _5  and  _8
REMARK    4  A    between atoms: _8  and  _9
REMARK    5  A    between atoms: _15  and  _17
REMARK    6  A    between atoms: _17  and  _18
REMARK    7  A    between atoms: _22  and  _23
REMARK    8  A    between atoms: _28  and  _30
REMARK    9  A    between atoms: _30  and  _31
REMARK   10  A    between atoms: _30  and  _33
REMARK   11  A    between atoms: _33  and  _34
REMARK   12  A    between atoms: _37  and  _39
REMARK   13  A    between atoms: _39  and  _40
REMARK   14  A    between atoms: _42  and  _44
REMARK   15  A    between atoms: _44  and  _45
REMARK   16  A    between atoms: _47  and  _49
REMARK   17  A    between atoms: _49  and  _50
REMARK   18  A    between atoms: _49  and  _52
REMARK   19  A    between atoms: _52  and  _53
REMARK   20  A    between atoms: _58  and  _60
REMARK   21  A    between atoms: _60  and  _61
REMARK   22  A    between atoms: _60  and  _63
REMARK   23  A    between atoms: _63  and  _64
REMARK   24  A    between atoms: _69  and  _71
REMARK   25  A    between atoms: _71  and  _72
REMARK   26  A    between atoms: _71  and  _74
REMARK   27  A    between atoms: _74  and  _75
REMARK   28  A    between atoms: _78  and  _80
REMARK   29  A    between atoms: _80  and  _81
REMARK   30  A    between atoms: _80  and  _83
REMARK   31  A    between atoms: _83  and  _84
REMARK   32  A    between atoms: _89  and  _90
REMARK   33  A    between atoms: _93  and  _94
REMARK   34  A    between atoms: _99  and  _101
REMARK   35  A    between atoms: _101  and  _102
REMARK   36  A    between atoms: _101  and  _104
REMARK   37  A    between atoms: _104  and  _105
REMARK   38  A    between atoms: _105  and  _106
REMARK   39  A    between atoms: _109  and  _111
REMARK   40  A    between atoms: _111  and  _112
REMARK   41  A    between atoms: _111  and  _114
REMARK   42  A    between atoms: _114  and  _115
REMARK   43  A    between atoms: _118  and  _120
REMARK   44  A    between atoms: _120  and  _121
REMARK   45  A    between atoms: _120  and  _123
REMARK   46  A    between atoms: _123  and  _124
REMARK   47  A    between atoms: _127  and  _129
REMARK   48  A    between atoms: _129  and  _130
REMARK   49  A    between atoms: _129  and  _132
REMARK   50  A    between atoms: _132  and  _133
REMARK   51  A    between atoms: _136  and  _138
REMARK   52  A    between atoms: _138  and  _139
REMARK   53  A    between atoms: _138  and  _141
REMARK   54  A    between atoms: _141  and  _142
REMARK   55  A    between atoms: _145  and  _147
REMARK   56  A    between atoms: _147  and  _148
REMARK   57  A    between atoms: _147  and  _150
REMARK   58  A    between atoms: _150  and  _151
REMARK   59  A    between atoms: _156  and  _157
REMARK   60  A    between atoms: _159  and  _161
REMARK   61  A    between atoms: _161  and  _162
REMARK   62  A    between atoms: _161  and  _164
REMARK   63  A    between atoms: _164  and  _165
REMARK   64  A    between atoms: _170  and  _171
REMARK   65  A    between atoms: _173  and  _175
REMARK   66  A    between atoms: _175  and  _176
REMARK   67  A    between atoms: _175  and  _178
REMARK   68  A    between atoms: _178  and  _179
REMARK   69  A    between atoms: _181  and  _183
REMARK   70  A    between atoms: _183  and  _184
REMARK   71  A    between atoms: _183  and  _186
REMARK   72  A    between atoms: _186  and  _187
REMARK   73  A    between atoms: _187  and  _188
REMARK   74  A    between atoms: _188  and  _189
REMARK   75  A    between atoms: _198  and  _200
REMARK   76  A    between atoms: _200  and  _201
REMARK   77  A    between atoms: _200  and  _203
REMARK   78  A    between atoms: _203  and  _204
REMARK   79  A    between atoms: _204  and  _205
REMARK   80  A    between atoms: _210  and  _212
REMARK   81  A    between atoms: _212  and  _213
REMARK   82  A    between atoms: _212  and  _215
REMARK   83  A    between atoms: _215  and  _216
REMARK   84  A    between atoms: _219  and  _221
REMARK   85  A    between atoms: _221  and  _222
REMARK   86  A    between atoms: _221  and  _224
REMARK   87  A    between atoms: _224  and  _225
REMARK   88  A    between atoms: _230  and  _232
REMARK   89  A    between atoms: _232  and  _233
REMARK   90  A    between atoms: _232  and  _235
REMARK   91  A    between atoms: _235  and  _236
REMARK   92  A    between atoms: _241  and  _243
REMARK   93  A    between atoms: _243  and  _244
REMARK   94  A    between atoms: _243  and  _246
REMARK   95  A    between atoms: _246  and  _247
REMARK   96  A    between atoms: _252  and  _253
REMARK   97  A    between atoms: _255  and  _257
REMARK   98  A    between atoms: _257  and  _258
REMARK   99  A    between atoms: _257  and  _260
REMARK  100  A    between atoms: _260  and  _261
REMARK  101  A    between atoms: _266  and  _268
REMARK  102  A    between atoms: _268  and  _269
REMARK  103  A    between atoms: _268  and  _271
REMARK  104  A    between atoms: _271  and  _272
REMARK  105  A    between atoms: _274  and  _276
REMARK  106  A    between atoms: _276  and  _277
REMARK  107  A    between atoms: _276  and  _279
REMARK  108  A    between atoms: _279  and  _280
REMARK  109  A    between atoms: _283  and  _285
REMARK  110  A    between atoms: _285  and  _286
REMARK  111  A    between atoms: _285  and  _288
REMARK  112  A    between atoms: _288  and  _289
REMARK  113  A    between atoms: _292  and  _294
REMARK  114  A    between atoms: _294  and  _295
REMARK  115  A    between atoms: _294  and  _297
REMARK  116  A    between atoms: _297  and  _298
REMARK  117  A    between atoms: _304  and  _306
REMARK  118  A    between atoms: _306  and  _307
REMARK  119  A    between atoms: _306  and  _309
REMARK  120  A    between atoms: _309  and  _310
REMARK                            x       y       z     vdW  Elec       q    Type
REMARK                         _______ _______ _______ _____ _____    ______ ____
ROOT
ATOM      1  O   HOH     1       2.368  53.100 -14.443  0.00  0.00    +0.000 OA
ENDROOT
TORSDOF 0
REMARK  Name = ../refined-set-2016/4css/4css_pocket.pdb
REMARK  120 active torsions:
REMARK  status: ('A' for Active; 'I' for Inactive)
REMARK    1  A    between atoms: _1  and  _5
REMARK    2  A    between atoms: _5  and  _6
REMARK    3  A    between atoms: _5  and  _8
REMARK    4  A    between atoms: _8  and  _9
REMARK    5  A    between atoms: _15  and  _17
REMARK    6  A    between atoms: _17  and  _18
REMARK    7  A    between atoms: _22  and  _23
REMARK    8  A    between atoms: _28  and  _30
REMARK    9  A    between atoms: _30  and  _31
REMARK   10  A    between atoms: _30  and  _33
REMARK   11  A    between atoms: _33  and  _34
REMARK   12  A    between atoms: _37  and  _39
REMARK   13  A    between atoms: _39  and  _40
REMARK   14  A    between atoms: _42  and  _44
REMARK   15  A    between atoms: _44  and  _45
REMARK   16  A    between atoms: _47  and  _49
REMARK   17  A    between atoms: _49  and  _50
REMARK   18  A    between atoms: _49  and  _52
REMARK   19  A    between atoms: _52  and  _53
REMARK   20  A    between atoms: _58  and  _60
REMARK   21  A    between atoms: _60  and  _61
REMARK   22  A    between atoms: _60  and  _63
REMARK   23  A    between atoms: _63  and  _64
REMARK   24  A    between atoms: _69  and  _71
REMARK   25  A    between atoms: _71  and  _72
REMARK   26  A    between atoms: _71  and  _74
REMARK   27  A    between atoms: _74  and  _75
REMARK   28  A    between atoms: _78  and  _80
REMARK   29  A    between atoms: _80  and  _81
REMARK   30  A    between atoms: _80  and  _83
REMARK   31  A    between atoms: _83  and  _84
REMARK   32  A    between atoms: _89  and  _90
REMARK   33  A    between atoms: _93  and  _94
REMARK   34  A    between atoms: _99  and  _101
REMARK   35  A    between atoms: _101  and  _102
REMARK   36  A    between atoms: _101  and  _104
REMARK   37  A    between atoms: _104  and  _105
REMARK   38  A    between atoms: _105  and  _106
REMARK   39  A    between atoms: _109  and  _111
REMARK   40  A    between atoms: _111  and  _112
REMARK   41  A    between atoms: _111  and  _114
REMARK   42  A    between atoms: _114  and  _115
REMARK   43  A    between atoms: _118  and  _120
REMARK   44  A    between atoms: _120  and  _121
REMARK   45  A    between atoms: _120  and  _123
REMARK   46  A    between atoms: _123  and  _124
REMARK   47  A    between atoms: _127  and  _129
REMARK   48  A    between atoms: _129  and  _130
REMARK   49  A    between atoms: _129  and  _132
REMARK   50  A    between atoms: _132  and  _133
REMARK   51  A    between atoms: _136  and  _138
REMARK   52  A    between atoms: _138  and  _139
REMARK   53  A    between atoms: _138  and  _141
REMARK   54  A    between atoms: _141  and  _142
REMARK   55  A    between atoms: _145  and  _147
REMARK   56  A    between atoms: _147  and  _148
REMARK   57  A    between atoms: _147  and  _150
REMARK   58  A    between atoms: _150  and  _151
REMARK   59  A    between atoms: _156  and  _157
REMARK   60  A    between atoms: _159  and  _161
REMARK   61  A    between atoms: _161  and  _162
REMARK   62  A    between atoms: _161  and  _164
REMARK   63  A    between atoms: _164  and  _165
REMARK   64  A    between atoms: _170  and  _171
REMARK   65  A    between atoms: _173  and  _175
REMARK   66  A    between atoms: _175  and  _176
REMARK   67  A    between atoms: _175  and  _178
REMARK   68  A    between atoms: _178  and  _179
REMARK   69  A    between atoms: _181  and  _183
REMARK   70  A    between atoms: _183  and  _184
REMARK   71  A    between atoms: _183  and  _186
REMARK   72  A    between atoms: _186  and  _187
REMARK   73  A    between atoms: _187  and  _188
REMARK   74  A    between atoms: _188  and  _189
REMARK   75  A    between atoms: _198  and  _200
REMARK   76  A    between atoms: _200  and  _201
REMARK   77  A    between atoms: _200  and  _203
REMARK   78  A    between atoms: _203  and  _204
REMARK   79  A    between atoms: _204  and  _205
REMARK   80  A    between atoms: _210  and  _212
REMARK   81  A    between atoms: _212  and  _213
REMARK   82  A    between atoms: _212  and  _215
REMARK   83  A    between atoms: _215  and  _216
REMARK   84  A    between atoms: _219  and  _221
REMARK   85  A    between atoms: _221  and  _222
REMARK   86  A    between atoms: _221  and  _224
REMARK   87  A    between atoms: _224  and  _225
REMARK   88  A    between atoms: _230  and  _232
REMARK   89  A    between atoms: _232  and  _233
REMARK   90  A    between atoms: _232  and  _235
REMARK   91  A    between atoms: _235  and  _236
REMARK   92  A    between atoms: _241  and  _243
REMARK   93  A    between atoms: _243  and  _244
REMARK   94  A    between atoms: _243  and  _246
REMARK   95  A    between atoms: _246  and  _247
REMARK   96  A    between atoms: _252  and  _253
REMARK   97  A    between atoms: _255  and  _257
REMARK   98  A    between atoms: _257  and  _258
REMARK   99  A    between atoms: _257  and  _260
REMARK  100  A    between atoms: _260  and  _261
REMARK  101  A    between atoms: _266  and  _268
REMARK  102  A    between atoms: _268  and  _269
REMARK  103  A    between atoms: _268  and  _271
REMARK  104  A    between atoms: _271  and  _272
REMARK  105  A    between atoms: _274  and  _276
REMARK  106  A    between atoms: _276  and  _277
REMARK  107  A    between atoms: _276  and  _279
REMARK  108  A    between atoms: _279  and  _280
REMARK  109  A    between atoms: _283  and  _285
REMARK  110  A    between atoms: _285  and  _286
REMARK  111  A    between atoms: _285  and  _288
REMARK  112  A    between atoms: _288  and  _289
REMARK  113  A    between atoms: _292  and  _294
REMARK  114  A    between atoms: _294  and  _295
REMARK  115  A    between atoms: _294  and  _297
REMARK  116  A    between atoms: _297  and  _298
REMARK  117  A    between atoms: _304  and  _306
REMARK  118  A    between atoms: _306  and  _307
REMARK  119  A    between atoms: _306  and  _309
REMARK  120  A    between atoms: _309  and  _310
REMARK                            x       y       z     vdW  Elec       q    Type
REMARK                         _______ _______ _______ _____ _____    ______ ____
ROOT
ATOM      1  O   HOH     1     -12.740  43.561  -7.094  0.00  0.00    +0.000 OA
ENDROOT
TORSDOF 0
REMARK  Name = ../refined-set-2016/4css/4css_pocket.pdb
REMARK  120 active torsions:
REMARK  status: ('A' for Active; 'I' for Inactive)
REMARK    1  A    between atoms: _1  and  _5
REMARK    2  A    between atoms: _5  and  _6
REMARK    3  A    between atoms: _5  and  _8
REMARK    4  A    between atoms: _8  and  _9
REMARK    5  A    between atoms: _15  and  _17
REMARK    6  A    between atoms: _17  and  _18
REMARK    7  A    between atoms: _22  and  _23
REMARK    8  A    between atoms: _28  and  _30
REMARK    9  A    between atoms: _30  and  _31
REMARK   10  A    between atoms: _30  and  _33
REMARK   11  A    between atoms: _33  and  _34
REMARK   12  A    between atoms: _37  and  _39
REMARK   13  A    between atoms: _39  and  _40
REMARK   14  A    between atoms: _42  and  _44
REMARK   15  A    between atoms: _44  and  _45
REMARK   16  A    between atoms: _47  and  _49
REMARK   17  A    between atoms: _49  and  _50
REMARK   18  A    between atoms: _49  and  _52
REMARK   19  A    between atoms: _52  and  _53
REMARK   20  A    between atoms: _58  and  _60
REMARK   21  A    between atoms: _60  and  _61
REMARK   22  A    between atoms: _60  and  _63
REMARK   23  A    between atoms: _63  and  _64
REMARK   24  A    between atoms: _69  and  _71
REMARK   25  A    between atoms: _71  and  _72
REMARK   26  A    between atoms: _71  and  _74
REMARK   27  A    between atoms: _74  and  _75
REMARK   28  A    between atoms: _78  and  _80
REMARK   29  A    between atoms: _80  and  _81
REMARK   30  A    between atoms: _80  and  _83
REMARK   31  A    between atoms: _83  and  _84
REMARK   32  A    between atoms: _89  and  _90
REMARK   33  A    between atoms: _93  and  _94
REMARK   34  A    between atoms: _99  and  _101
REMARK   35  A    between atoms: _101  and  _102
REMARK   36  A    between atoms: _101  and  _104
REMARK   37  A    between atoms: _104  and  _105
REMARK   38  A    between atoms: _105  and  _106
REMARK   39  A    between atoms: _109  and  _111
REMARK   40  A    between atoms: _111  and  _112
REMARK   41  A    between atoms: _111  and  _114
REMARK   42  A    between atoms: _114  and  _115
REMARK   43  A    between atoms: _118  and  _120
REMARK   44  A    between atoms: _120  and  _121
REMARK   45  A    between atoms: _120  and  _123
REMARK   46  A    between atoms: _123  and  _124
REMARK   47  A    between atoms: _127  and  _129
REMARK   48  A    between atoms: _129  and  _130
REMARK   49  A    between atoms: _129  and  _132
REMARK   50  A    between atoms: _132  and  _133
REMARK   51  A    between atoms: _136  and  _138
REMARK   52  A    between atoms: _138  and  _139
REMARK   53  A    between atoms: _138  and  _141
REMARK   54  A    between atoms: _141  and  _142
REMARK   55  A    between atoms: _145  and  _147
REMARK   56  A    between atoms: _147  and  _148
REMARK   57  A    between atoms: _147  and  _150
REMARK   58  A    between atoms: _150  and  _151
REMARK   59  A    between atoms: _156  and  _157
REMARK   60  A    between atoms: _159  and  _161
REMARK   61  A    between atoms: _161  and  _162
REMARK   62  A    between atoms: _161  and  _164
REMARK   63  A    between atoms: _164  and  _165
REMARK   64  A    between atoms: _170  and  _171
REMARK   65  A    between atoms: _173  and  _175
REMARK   66  A    between atoms: _175  and  _176
REMARK   67  A    between atoms: _175  and  _178
REMARK   68  A    between atoms: _178  and  _179
REMARK   69  A    between atoms: _181  and  _183
REMARK   70  A    between atoms: _183  and  _184
REMARK   71  A    between atoms: _183  and  _186
REMARK   72  A    between atoms: _186  and  _187
REMARK   73  A    between atoms: _187  and  _188
REMARK   74  A    between atoms: _188  and  _189
REMARK   75  A    between atoms: _198  and  _200
REMARK   76  A    between atoms: _200  and  _201
REMARK   77  A    between atoms: _200  and  _203
REMARK   78  A    between atoms: _203  and  _204
REMARK   79  A    between atoms: _204  and  _205
REMARK   80  A    between atoms: _210  and  _212
REMARK   81  A    between atoms: _212  and  _213
REMARK   82  A    between atoms: _212  and  _215
REMARK   83  A    between atoms: _215  and  _216
REMARK   84  A    between atoms: _219  and  _221
REMARK   85  A    between atoms: _221  and  _222
REMARK   86  A    between atoms: _221  and  _224
REMARK   87  A    between atoms: _224  and  _225
REMARK   88  A    between atoms: _230  and  _232
REMARK   89  A    between atoms: _232  and  _233
REMARK   90  A    between atoms: _232  and  _235
REMARK   91  A    between atoms: _235  and  _236
REMARK   92  A    between atoms: _241  and  _243
REMARK   93  A    between atoms: _243  and  _244
REMARK   94  A    between atoms: _243  and  _246
REMARK   95  A    between atoms: _246  and  _247
REMARK   96  A    between atoms: _252  and  _253
REMARK   97  A    between atoms: _255  and  _257
REMARK   98  A    between atoms: _257  and  _258
REMARK   99  A    between atoms: _257  and  _260
REMARK  100  A    between atoms: _260  and  _261
REMARK  101  A    between atoms: _266  and  _268
REMARK  102  A    between atoms: _268  and  _269
REMARK  103  A    between atoms: _268  and  _271
REMARK  104  A    between atoms: _271  and  _272
REMARK  105  A    between atoms: _274  and  _276
REMARK  106  A    between atoms: _276  and  _277
REMARK  107  A    between atoms: _276  and  _279
REMARK  108  A    between atoms: _279  and  _280
REMARK  109  A    between atoms: _283  and  _285
REMARK  110  A    between atoms: _285  and  _286
REMARK  111  A    between atoms: _285  and  _288
REMARK  112  A    between atoms: _288  and  _289
REMARK  113  A    between atoms: _292  and  _294
REMARK  114  A    between atoms: _294  and  _295
REMARK  115  A    between atoms: _294  and  _297
REMARK  116  A    between atoms: _297  and  _298
REMARK  117  A    between atoms: _304  and  _306
REMARK  118  A    between atoms: _306  and  _307
REMARK  119  A    between atoms: _306  and  _309
REMARK  120  A    between atoms: _309  and  _310
REMARK                            x       y       z     vdW  Elec       q    Type
REMARK                         _______ _______ _______ _____ _____    ______ ____
ROOT
ATOM      1  O   HOH     1      -6.375  52.576 -12.872  0.00  0.00    +0.000 OA
ENDROOT
TORSDOF 0
REMARK  Name = ../refined-set-2016/4css/4css_pocket.pdb
REMARK  120 active torsions:
REMARK  status: ('A' for Active; 'I' for Inactive)
REMARK    1  A    between atoms: _1  and  _5
REMARK    2  A    between atoms: _5  and  _6
REMARK    3  A    between atoms: _5  and  _8
REMARK    4  A    between atoms: _8  and  _9
REMARK    5  A    between atoms: _15  and  _17
REMARK    6  A    between atoms: _17  and  _18
REMARK    7  A    between atoms: _22  and  _23
REMARK    8  A    between atoms: _28  and  _30
REMARK    9  A    between atoms: _30  and  _31
REMARK   10  A    between atoms: _30  and  _33
REMARK   11  A    between atoms: _33  and  _34
REMARK   12  A    between atoms: _37  and  _39
REMARK   13  A    between atoms: _39  and  _40
REMARK   14  A    between atoms: _42  and  _44
REMARK   15  A    between atoms: _44  and  _45
REMARK   16  A    between atoms: _47  and  _49
REMARK   17  A    between atoms: _49  and  _50
REMARK   18  A    between atoms: _49  and  _52
REMARK   19  A    between atoms: _52  and  _53
REMARK   20  A    between atoms: _58  and  _60
REMARK   21  A    between atoms: _60  and  _61
REMARK   22  A    between atoms: _60  and  _63
REMARK   23  A    between atoms: _63  and  _64
REMARK   24  A    between atoms: _69  and  _71
REMARK   25  A    between atoms: _71  and  _72
REMARK   26  A    between atoms: _71  and  _74
REMARK   27  A    between atoms: _74  and  _75
REMARK   28  A    between atoms: _78  and  _80
REMARK   29  A    between atoms: _80  and  _81
REMARK   30  A    between atoms: _80  and  _83
REMARK   31  A    between atoms: _83  and  _84
REMARK   32  A    between atoms: _89  and  _90
REMARK   33  A    between atoms: _93  and  _94
REMARK   34  A    between atoms: _99  and  _101
REMARK   35  A    between atoms: _101  and  _102
REMARK   36  A    between atoms: _101  and  _104
REMARK   37  A    between atoms: _104  and  _105
REMARK   38  A    between atoms: _105  and  _106
REMARK   39  A    between atoms: _109  and  _111
REMARK   40  A    between atoms: _111  and  _112
REMARK   41  A    between atoms: _111  and  _114
REMARK   42  A    between atoms: _114  and  _115
REMARK   43  A    between atoms: _118  and  _120
REMARK   44  A    between atoms: _120  and  _121
REMARK   45  A    between atoms: _120  and  _123
REMARK   46  A    between atoms: _123  and  _124
REMARK   47  A    between atoms: _127  and  _129
REMARK   48  A    between atoms: _129  and  _130
REMARK   49  A    between atoms: _129  and  _132
REMARK   50  A    between atoms: _132  and  _133
REMARK   51  A    between atoms: _136  and  _138
REMARK   52  A    between atoms: _138  and  _139
REMARK   53  A    between atoms: _138  and  _141
REMARK   54  A    between atoms: _141  and  _142
REMARK   55  A    between atoms: _145  and  _147
REMARK   56  A    between atoms: _147  and  _148
REMARK   57  A    between atoms: _147  and  _150
REMARK   58  A    between atoms: _150  and  _151
REMARK   59  A    between atoms: _156  and  _157
REMARK   60  A    between atoms: _159  and  _161
REMARK   61  A    between atoms: _161  and  _162
REMARK   62  A    between atoms: _161  and  _164
REMARK   63  A    between atoms: _164  and  _165
REMARK   64  A    between atoms: _170  and  _171
REMARK   65  A    between atoms: _173  and  _175
REMARK   66  A    between atoms: _175  and  _176
REMARK   67  A    between atoms: _175  and  _178
REMARK   68  A    between atoms: _178  and  _179
REMARK   69  A    between atoms: _181  and  _183
REMARK   70  A    between atoms: _183  and  _184
REMARK   71  A    between atoms: _183  and  _186
REMARK   72  A    between atoms: _186  and  _187
REMARK   73  A    between atoms: _187  and  _188
REMARK   74  A    between atoms: _188  and  _189
REMARK   75  A    between atoms: _198  and  _200
REMARK   76  A    between atoms: _200  and  _201
REMARK   77  A    between atoms: _200  and  _203
REMARK   78  A    between atoms: _203  and  _204
REMARK   79  A    between atoms: _204  and  _205
REMARK   80  A    between atoms: _210  and  _212
REMARK   81  A    between atoms: _212  and  _213
REMARK   82  A    between atoms: _212  and  _215
REMARK   83  A    between atoms: _215  and  _216
REMARK   84  A    between atoms: _219  and  _221
REMARK   85  A    between atoms: _221  and  _222
REMARK   86  A    between atoms: _221  and  _224
REMARK   87  A    between atoms: _224  and  _225
REMARK   88  A    between atoms: _230  and  _232
REMARK   89  A    between atoms: _232  and  _233
REMARK   90  A    between atoms: _232  and  _235
REMARK   91  A    between atoms: _235  and  _236
REMARK   92  A    between atoms: _241  and  _243
REMARK   93  A    between atoms: _243  and  _244
REMARK   94  A    between atoms: _243  and  _246
REMARK   95  A    between atoms: _246  and  _247
REMARK   96  A    between atoms: _252  and  _253
REMARK   97  A    between atoms: _255  and  _257
REMARK   98  A    between atoms: _257  and  _258
REMARK   99  A    between atoms: _257  and  _260
REMARK  100  A    between atoms: _260  and  _261
REMARK  101  A    between atoms: _266  and  _268
REMARK  102  A    between atoms: _268  and  _269
REMARK  103  A    between atoms: _268  and  _271
REMARK  104  A    between atoms: _271  and  _272
REMARK  105  A    between atoms: _274  and  _276
REMARK  106  A    between atoms: _276  and  _277
REMARK  107  A    between atoms: _276  and  _279
REMARK  108  A    between atoms: _279  and  _280
REMARK  109  A    between atoms: _283  and  _285
REMARK  110  A    between atoms: _285  and  _286
REMARK  111  A    between atoms: _285  and  _288
REMARK  112  A    between atoms: _288  and  _289
REMARK  113  A    between atoms: _292  and  _294
REMARK  114  A    between atoms: _294  and  _295
REMARK  115  A    between atoms: _294  and  _297
REMARK  116  A    between atoms: _297  and  _298
REMARK  117  A    between atoms: _304  and  _306
REMARK  118  A    between atoms: _306  and  _307
REMARK  119  A    between atoms: _306  and  _309
REMARK  120  A    between atoms: _309  and  _310
REMARK                            x       y       z     vdW  Elec       q    Type
REMARK                         _______ _______ _______ _____ _____    ______ ____
ROOT
ATOM      1  O   HOH     1      -0.054  53.793 -13.162  0.00  0.00    +0.000 OA
ENDROOT
TORSDOF 0
REMARK  Name = ../refined-set-2016/4css/4css_pocket.pdb
REMARK  120 active torsions:
REMARK  status: ('A' for Active; 'I' for Inactive)
REMARK    1  A    between atoms: _1  and  _5
REMARK    2  A    between atoms: _5  and  _6
REMARK    3  A    between atoms: _5  and  _8
REMARK    4  A    between atoms: _8  and  _9
REMARK    5  A    between atoms: _15  and  _17
REMARK    6  A    between atoms: _17  and  _18
REMARK    7  A    between atoms: _22  and  _23
REMARK    8  A    between atoms: _28  and  _30
REMARK    9  A    between atoms: _30  and  _31
REMARK   10  A    between atoms: _30  and  _33
REMARK   11  A    between atoms: _33  and  _34
REMARK   12  A    between atoms: _37  and  _39
REMARK   13  A    between atoms: _39  and  _40
REMARK   14  A    between atoms: _42  and  _44
REMARK   15  A    between atoms: _44  and  _45
REMARK   16  A    between atoms: _47  and  _49
REMARK   17  A    between atoms: _49  and  _50
REMARK   18  A    between atoms: _49  and  _52
REMARK   19  A    between atoms: _52  and  _53
REMARK   20  A    between atoms: _58  and  _60
REMARK   21  A    between atoms: _60  and  _61
REMARK   22  A    between atoms: _60  and  _63
REMARK   23  A    between atoms: _63  and  _64
REMARK   24  A    between atoms: _69  and  _71
REMARK   25  A    between atoms: _71  and  _72
REMARK   26  A    between atoms: _71  and  _74
REMARK   27  A    between atoms: _74  and  _75
REMARK   28  A    between atoms: _78  and  _80
REMARK   29  A    between atoms: _80  and  _81
REMARK   30  A    between atoms: _80  and  _83
REMARK   31  A    between atoms: _83  and  _84
REMARK   32  A    between atoms: _89  and  _90
REMARK   33  A    between atoms: _93  and  _94
REMARK   34  A    between atoms: _99  and  _101
REMARK   35  A    between atoms: _101  and  _102
REMARK   36  A    between atoms: _101  and  _104
REMARK   37  A    between atoms: _104  and  _105
REMARK   38  A    between atoms: _105  and  _106
REMARK   39  A    between atoms: _109  and  _111
REMARK   40  A    between atoms: _111  and  _112
REMARK   41  A    between atoms: _111  and  _114
REMARK   42  A    between atoms: _114  and  _115
REMARK   43  A    between atoms: _118  and  _120
REMARK   44  A    between atoms: _120  and  _121
REMARK   45  A    between atoms: _120  and  _123
REMARK   46  A    between atoms: _123  and  _124
REMARK   47  A    between atoms: _127  and  _129
REMARK   48  A    between atoms: _129  and  _130
REMARK   49  A    between atoms: _129  and  _132
REMARK   50  A    between atoms: _132  and  _133
REMARK   51  A    between atoms: _136  and  _138
REMARK   52  A    between atoms: _138  and  _139
REMARK   53  A    between atoms: _138  and  _141
REMARK   54  A    between atoms: _141  and  _142
REMARK   55  A    between atoms: _145  and  _147
REMARK   56  A    between atoms: _147  and  _148
REMARK   57  A    between atoms: _147  and  _150
REMARK   58  A    between atoms: _150  and  _151
REMARK   59  A    between atoms: _156  and  _157
REMARK   60  A    between atoms: _159  and  _161
REMARK   61  A    between atoms: _161  and  _162
REMARK   62  A    between atoms: _161  and  _164
REMARK   63  A    between atoms: _164  and  _165
REMARK   64  A    between atoms: _170  and  _171
REMARK   65  A    between atoms: _173  and  _175
REMARK   66  A    between atoms: _175  and  _176
REMARK   67  A    between atoms: _175  and  _178
REMARK   68  A    between atoms: _178  and  _179
REMARK   69  A    between atoms: _181  and  _183
REMARK   70  A    between atoms: _183  and  _184
REMARK   71  A    between atoms: _183  and  _186
REMARK   72  A    between atoms: _186  and  _187
REMARK   73  A    between atoms: _187  and  _188
REMARK   74  A    between atoms: _188  and  _189
REMARK   75  A    between atoms: _198  and  _200
REMARK   76  A    between atoms: _200  and  _201
REMARK   77  A    between atoms: _200  and  _203
REMARK   78  A    between atoms: _203  and  _204
REMARK   79  A    between atoms: _204  and  _205
REMARK   80  A    between atoms: _210  and  _212
REMARK   81  A    between atoms: _212  and  _213
REMARK   82  A    between atoms: _212  and  _215
REMARK   83  A    between atoms: _215  and  _216
REMARK   84  A    between atoms: _219  and  _221
REMARK   85  A    between atoms: _221  and  _222
REMARK   86  A    between atoms: _221  and  _224
REMARK   87  A    between atoms: _224  and  _225
REMARK   88  A    between atoms: _230  and  _232
REMARK   89  A    between atoms: _232  and  _233
REMARK   90  A    between atoms: _232  and  _235
REMARK   91  A    between atoms: _235  and  _236
REMARK   92  A    between atoms: _241  and  _243
REMARK   93  A    between atoms: _243  and  _244
REMARK   94  A    between atoms: _243  and  _246
REMARK   95  A    between atoms: _246  and  _247
REMARK   96  A    between atoms: _252  and  _253
REMARK   97  A    between atoms: _255  and  _257
REMARK   98  A    between atoms: _257  and  _258
REMARK   99  A    between atoms: _257  and  _260
REMARK  100  A    between atoms: _260  and  _261
REMARK  101  A    between atoms: _266  and  _268
REMARK  102  A    between atoms: _268  and  _269
REMARK  103  A    between atoms: _268  and  _271
REMARK  104  A    between atoms: _271  and  _272
REMARK  105  A    between atoms: _274  and  _276
REMARK  106  A    between atoms: _276  and  _277
REMARK  107  A    between atoms: _276  and  _279
REMARK  108  A    between atoms: _279  and  _280
REMARK  109  A    between atoms: _283  and  _285
REMARK  110  A    between atoms: _285  and  _286
REMARK  111  A    between atoms: _285  and  _288
REMARK  112  A    between atoms: _288  and  _289
REMARK  113  A    between atoms: _292  and  _294
REMARK  114  A    between atoms: _294  and  _295
REMARK  115  A    between atoms: _294  and  _297
REMARK  116  A    between atoms: _297  and  _298
REMARK  117  A    between atoms: _304  and  _306
REMARK  118  A    between atoms: _306  and  _307
REMARK  119  A    between atoms: _306  and  _309
REMARK  120  A    between atoms: _309  and  _310
REMARK                            x       y       z     vdW  Elec       q    Type
REMARK                         _______ _______ _______ _____ _____    ______ ____
ROOT
ATOM      1  O   HOH     1      -2.585  53.587 -14.282  0.00  0.00    +0.000 OA
ENDROOT
TORSDOF 0
REMARK  Name = ../refined-set-2016/4css/4css_pocket.pdb
REMARK  120 active torsions:
REMARK  status: ('A' for Active; 'I' for Inactive)
REMARK    1  A    between atoms: _1  and  _5
REMARK    2  A    between atoms: _5  and  _6
REMARK    3  A    between atoms: _5  and  _8
REMARK    4  A    between atoms: _8  and  _9
REMARK    5  A    between atoms: _15  and  _17
REMARK    6  A    between atoms: _17  and  _18
REMARK    7  A    between atoms: _22  and  _23
REMARK    8  A    between atoms: _28  and  _30
REMARK    9  A    between atoms: _30  and  _31
REMARK   10  A    between atoms: _30  and  _33
REMARK   11  A    between atoms: _33  and  _34
REMARK   12  A    between atoms: _37  and  _39
REMARK   13  A    between atoms: _39  and  _40
REMARK   14  A    between atoms: _42  and  _44
REMARK   15  A    between atoms: _44  and  _45
REMARK   16  A    between atoms: _47  and  _49
REMARK   17  A    between atoms: _49  and  _50
REMARK   18  A    between atoms: _49  and  _52
REMARK   19  A    between atoms: _52  and  _53
REMARK   20  A    between atoms: _58  and  _60
REMARK   21  A    between atoms: _60  and  _61
REMARK   22  A    between atoms: _60  and  _63
REMARK   23  A    between atoms: _63  and  _64
REMARK   24  A    between atoms: _69  and  _71
REMARK   25  A    between atoms: _71  and  _72
REMARK   26  A    between atoms: _71  and  _74
REMARK   27  A    between atoms: _74  and  _75
REMARK   28  A    between atoms: _78  and  _80
REMARK   29  A    between atoms: _80  and  _81
REMARK   30  A    between atoms: _80  and  _83
REMARK   31  A    between atoms: _83  and  _84
REMARK   32  A    between atoms: _89  and  _90
REMARK   33  A    between atoms: _93  and  _94
REMARK   34  A    between atoms: _99  and  _101
REMARK   35  A    between atoms: _101  and  _102
REMARK   36  A    between atoms: _101  and  _104
REMARK   37  A    between atoms: _104  and  _105
REMARK   38  A    between atoms: _105  and  _106
REMARK   39  A    between atoms: _109  and  _111
REMARK   40  A    between atoms: _111  and  _112
REMARK   41  A    between atoms: _111  and  _114
REMARK   42  A    between atoms: _114  and  _115
REMARK   43  A    between atoms: _118  and  _120
REMARK   44  A    between atoms: _120  and  _121
REMARK   45  A    between atoms: _120  and  _123
REMARK   46  A    between atoms: _123  and  _124
REMARK   47  A    between atoms: _127  and  _129
REMARK   48  A    between atoms: _129  and  _130
REMARK   49  A    between atoms: _129  and  _132
REMARK   50  A    between atoms: _132  and  _133
REMARK   51  A    between atoms: _136  and  _138
REMARK   52  A    between atoms: _138  and  _139
REMARK   53  A    between atoms: _138  and  _141
REMARK   54  A    between atoms: _141  and  _142
REMARK   55  A    between atoms: _145  and  _147
REMARK   56  A    between atoms: _147  and  _148
REMARK   57  A    between atoms: _147  and  _150
REMARK   58  A    between atoms: _150  and  _151
REMARK   59  A    between atoms: _156  and  _157
REMARK   60  A    between atoms: _159  and  _161
REMARK   61  A    between atoms: _161  and  _162
REMARK   62  A    between atoms: _161  and  _164
REMARK   63  A    between atoms: _164  and  _165
REMARK   64  A    between atoms: _170  and  _171
REMARK   65  A    between atoms: _173  and  _175
REMARK   66  A    between atoms: _175  and  _176
REMARK   67  A    between atoms: _175  and  _178
REMARK   68  A    between atoms: _178  and  _179
REMARK   69  A    between atoms: _181  and  _183
REMARK   70  A    between atoms: _183  and  _184
REMARK   71  A    between atoms: _183  and  _186
REMARK   72  A    between atoms: _186  and  _187
REMARK   73  A    between atoms: _187  and  _188
REMARK   74  A    between atoms: _188  and  _189
REMARK   75  A    between atoms: _198  and  _200
REMARK   76  A    between atoms: _200  and  _201
REMARK   77  A    between atoms: _200  and  _203
REMARK   78  A    between atoms: _203  and  _204
REMARK   79  A    between atoms: _204  and  _205
REMARK   80  A    between atoms: _210  and  _212
REMARK   81  A    between atoms: _212  and  _213
REMARK   82  A    between atoms: _212  and  _215
REMARK   83  A    between atoms: _215  and  _216
REMARK   84  A    between atoms: _219  and  _221
REMARK   85  A    between atoms: _221  and  _222
REMARK   86  A    between atoms: _221  and  _224
REMARK   87  A    between atoms: _224  and  _225
REMARK   88  A    between atoms: _230  and  _232
REMARK   89  A    between atoms: _232  and  _233
REMARK   90  A    between atoms: _232  and  _235
REMARK   91  A    between atoms: _235  and  _236
REMARK   92  A    between atoms: _241  and  _243
REMARK   93  A    between atoms: _243  and  _244
REMARK   94  A    between atoms: _243  and  _246
REMARK   95  A    between atoms: _246  and  _247
REMARK   96  A    between atoms: _252  and  _253
REMARK   97  A    between atoms: _255  and  _257
REMARK   98  A    between atoms: _257  and  _258
REMARK   99  A    between atoms: _257  and  _260
REMARK  100  A    between atoms: _260  and  _261
REMARK  101  A    between atoms: _266  and  _268
REMARK  102  A    between atoms: _268  and  _269
REMARK  103  A    between atoms: _268  and  _271
REMARK  104  A    between atoms: _271  and  _272
REMARK  105  A    between atoms: _274  and  _276
REMARK  106  A    between atoms: _276  and  _277
REMARK  107  A    between atoms: _276  and  _279
REMARK  108  A    between atoms: _279  and  _280
REMARK  109  A    between atoms: _283  and  _285
REMARK  110  A    between atoms: _285  and  _286
REMARK  111  A    between atoms: _285  and  _288
REMARK  112  A    between atoms: _288  and  _289
REMARK  113  A    between atoms: _292  and  _294
REMARK  114  A    between atoms: _294  and  _295
REMARK  115  A    between atoms: _294  and  _297
REMARK  116  A    between atoms: _297  and  _298
REMARK  117  A    between atoms: _304  and  _306
REMARK  118  A    between atoms: _306  and  _307
REMARK  119  A    between atoms: _306  and  _309
REMARK  120  A    between atoms: _309  and  _310
REMARK                            x       y       z     vdW  Elec       q    Type
REMARK                         _______ _______ _______ _____ _____    ______ ____
ROOT
ATOM      1  O   HOH     1      -4.637  56.268 -11.411  0.00  0.00    +0.000 OA
ENDROOT
TORSDOF 0
REMARK  Name = ../refined-set-2016/4css/4css_pocket.pdb
REMARK  120 active torsions:
REMARK  status: ('A' for Active; 'I' for Inactive)
REMARK    1  A    between atoms: _1  and  _5
REMARK    2  A    between atoms: _5  and  _6
REMARK    3  A    between atoms: _5  and  _8
REMARK    4  A    between atoms: _8  and  _9
REMARK    5  A    between atoms: _15  and  _17
REMARK    6  A    between atoms: _17  and  _18
REMARK    7  A    between atoms: _22  and  _23
REMARK    8  A    between atoms: _28  and  _30
REMARK    9  A    between atoms: _30  and  _31
REMARK   10  A    between atoms: _30  and  _33
REMARK   11  A    between atoms: _33  and  _34
REMARK   12  A    between atoms: _37  and  _39
REMARK   13  A    between atoms: _39  and  _40
REMARK   14  A    between atoms: _42  and  _44
REMARK   15  A    between atoms: _44  and  _45
REMARK   16  A    between atoms: _47  and  _49
REMARK   17  A    between atoms: _49  and  _50
REMARK   18  A    between atoms: _49  and  _52
REMARK   19  A    between atoms: _52  and  _53
REMARK   20  A    between atoms: _58  and  _60
REMARK   21  A    between atoms: _60  and  _61
REMARK   22  A    between atoms: _60  and  _63
REMARK   23  A    between atoms: _63  and  _64
REMARK   24  A    between atoms: _69  and  _71
REMARK   25  A    between atoms: _71  and  _72
REMARK   26  A    between atoms: _71  and  _74
REMARK   27  A    between atoms: _74  and  _75
REMARK   28  A    between atoms: _78  and  _80
REMARK   29  A    between atoms: _80  and  _81
REMARK   30  A    between atoms: _80  and  _83
REMARK   31  A    between atoms: _83  and  _84
REMARK   32  A    between atoms: _89  and  _90
REMARK   33  A    between atoms: _93  and  _94
REMARK   34  A    between atoms: _99  and  _101
REMARK   35  A    between atoms: _101  and  _102
REMARK   36  A    between atoms: _101  and  _104
REMARK   37  A    between atoms: _104  and  _105
REMARK   38  A    between atoms: _105  and  _106
REMARK   39  A    between atoms: _109  and  _111
REMARK   40  A    between atoms: _111  and  _112
REMARK   41  A    between atoms: _111  and  _114
REMARK   42  A    between atoms: _114  and  _115
REMARK   43  A    between atoms: _118  and  _120
REMARK   44  A    between atoms: _120  and  _121
REMARK   45  A    between atoms: _120  and  _123
REMARK   46  A    between atoms: _123  and  _124
REMARK   47  A    between atoms: _127  and  _129
REMARK   48  A    between atoms: _129  and  _130
REMARK   49  A    between atoms: _129  and  _132
REMARK   50  A    between atoms: _132  and  _133
REMARK   51  A    between atoms: _136  and  _138
REMARK   52  A    between atoms: _138  and  _139
REMARK   53  A    between atoms: _138  and  _141
REMARK   54  A    between atoms: _141  and  _142
REMARK   55  A    between atoms: _145  and  _147
REMARK   56  A    between atoms: _147  and  _148
REMARK   57  A    between atoms: _147  and  _150
REMARK   58  A    between atoms: _150  and  _151
REMARK   59  A    between atoms: _156  and  _157
REMARK   60  A    between atoms: _159  and  _161
REMARK   61  A    between atoms: _161  and  _162
REMARK   62  A    between atoms: _161  and  _164
REMARK   63  A    between atoms: _164  and  _165
REMARK   64  A    between atoms: _170  and  _171
REMARK   65  A    between atoms: _173  and  _175
REMARK   66  A    between atoms: _175  and  _176
REMARK   67  A    between atoms: _175  and  _178
REMARK   68  A    between atoms: _178  and  _179
REMARK   69  A    between atoms: _181  and  _183
REMARK   70  A    between atoms: _183  and  _184
REMARK   71  A    between atoms: _183  and  _186
REMARK   72  A    between atoms: _186  and  _187
REMARK   73  A    between atoms: _187  and  _188
REMARK   74  A    between atoms: _188  and  _189
REMARK   75  A    between atoms: _198  and  _200
REMARK   76  A    between atoms: _200  and  _201
REMARK   77  A    between atoms: _200  and  _203
REMARK   78  A    between atoms: _203  and  _204
REMARK   79  A    between atoms: _204  and  _205
REMARK   80  A    between atoms: _210  and  _212
REMARK   81  A    between atoms: _212  and  _213
REMARK   82  A    between atoms: _212  and  _215
REMARK   83  A    between atoms: _215  and  _216
REMARK   84  A    between atoms: _219  and  _221
REMARK   85  A    between atoms: _221  and  _222
REMARK   86  A    between atoms: _221  and  _224
REMARK   87  A    between atoms: _224  and  _225
REMARK   88  A    between atoms: _230  and  _232
REMARK   89  A    between atoms: _232  and  _233
REMARK   90  A    between atoms: _232  and  _235
REMARK   91  A    between atoms: _235  and  _236
REMARK   92  A    between atoms: _241  and  _243
REMARK   93  A    between atoms: _243  and  _244
REMARK   94  A    between atoms: _243  and  _246
REMARK   95  A    between atoms: _246  and  _247
REMARK   96  A    between atoms: _252  and  _253
REMARK   97  A    between atoms: _255  and  _257
REMARK   98  A    between atoms: _257  and  _258
REMARK   99  A    between atoms: _257  and  _260
REMARK  100  A    between atoms: _260  and  _261
REMARK  101  A    between atoms: _266  and  _268
REMARK  102  A    between atoms: _268  and  _269
REMARK  103  A    between atoms: _268  and  _271
REMARK  104  A    between atoms: _271  and  _272
REMARK  105  A    between atoms: _274  and  _276
REMARK  106  A    between atoms: _276  and  _277
REMARK  107  A    between atoms: _276  and  _279
REMARK  108  A    between atoms: _279  and  _280
REMARK  109  A    between atoms: _283  and  _285
REMARK  110  A    between atoms: _285  and  _286
REMARK  111  A    between atoms: _285  and  _288
REMARK  112  A    between atoms: _288  and  _289
REMARK  113  A    between atoms: _292  and  _294
REMARK  114  A    between atoms: _294  and  _295
REMARK  115  A    between atoms: _294  and  _297
REMARK  116  A    between atoms: _297  and  _298
REMARK  117  A    between atoms: _304  and  _306
REMARK  118  A    between atoms: _306  and  _307
REMARK  119  A    between atoms: _306  and  _309
REMARK  120  A    between atoms: _309  and  _310
REMARK                            x       y       z     vdW  Elec       q    Type
REMARK                         _______ _______ _______ _____ _____    ______ ____
ROOT
ATOM      1  O   HOH     1     -14.546  52.594 -10.124  0.00  0.00    +0.000 OA
ENDROOT
TORSDOF 0
REMARK  Name = ../refined-set-2016/4css/4css_pocket.pdb
REMARK  120 active torsions:
REMARK  status: ('A' for Active; 'I' for Inactive)
REMARK    1  A    between atoms: _1  and  _5
REMARK    2  A    between atoms: _5  and  _6
REMARK    3  A    between atoms: _5  and  _8
REMARK    4  A    between atoms: _8  and  _9
REMARK    5  A    between atoms: _15  and  _17
REMARK    6  A    between atoms: _17  and  _18
REMARK    7  A    between atoms: _22  and  _23
REMARK    8  A    between atoms: _28  and  _30
REMARK    9  A    between atoms: _30  and  _31
REMARK   10  A    between atoms: _30  and  _33
REMARK   11  A    between atoms: _33  and  _34
REMARK   12  A    between atoms: _37  and  _39
REMARK   13  A    between atoms: _39  and  _40
REMARK   14  A    between atoms: _42  and  _44
REMARK   15  A    between atoms: _44  and  _45
REMARK   16  A    between atoms: _47  and  _49
REMARK   17  A    between atoms: _49  and  _50
REMARK   18  A    between atoms: _49  and  _52
REMARK   19  A    between atoms: _52  and  _53
REMARK   20  A    between atoms: _58  and  _60
REMARK   21  A    between atoms: _60  and  _61
REMARK   22  A    between atoms: _60  and  _63
REMARK   23  A    between atoms: _63  and  _64
REMARK   24  A    between atoms: _69  and  _71
REMARK   25  A    between atoms: _71  and  _72
REMARK   26  A    between atoms: _71  and  _74
REMARK   27  A    between atoms: _74  and  _75
REMARK   28  A    between atoms: _78  and  _80
REMARK   29  A    between atoms: _80  and  _81
REMARK   30  A    between atoms: _80  and  _83
REMARK   31  A    between atoms: _83  and  _84
REMARK   32  A    between atoms: _89  and  _90
REMARK   33  A    between atoms: _93  and  _94
REMARK   34  A    between atoms: _99  and  _101
REMARK   35  A    between atoms: _101  and  _102
REMARK   36  A    between atoms: _101  and  _104
REMARK   37  A    between atoms: _104  and  _105
REMARK   38  A    between atoms: _105  and  _106
REMARK   39  A    between atoms: _109  and  _111
REMARK   40  A    between atoms: _111  and  _112
REMARK   41  A    between atoms: _111  and  _114
REMARK   42  A    between atoms: _114  and  _115
REMARK   43  A    between atoms: _118  and  _120
REMARK   44  A    between atoms: _120  and  _121
REMARK   45  A    between atoms: _120  and  _123
REMARK   46  A    between atoms: _123  and  _124
REMARK   47  A    between atoms: _127  and  _129
REMARK   48  A    between atoms: _129  and  _130
REMARK   49  A    between atoms: _129  and  _132
REMARK   50  A    between atoms: _132  and  _133
REMARK   51  A    between atoms: _136  and  _138
REMARK   52  A    between atoms: _138  and  _139
REMARK   53  A    between atoms: _138  and  _141
REMARK   54  A    between atoms: _141  and  _142
REMARK   55  A    between atoms: _145  and  _147
REMARK   56  A    between atoms: _147  and  _148
REMARK   57  A    between atoms: _147  and  _150
REMARK   58  A    between atoms: _150  and  _151
REMARK   59  A    between atoms: _156  and  _157
REMARK   60  A    between atoms: _159  and  _161
REMARK   61  A    between atoms: _161  and  _162
REMARK   62  A    between atoms: _161  and  _164
REMARK   63  A    between atoms: _164  and  _165
REMARK   64  A    between atoms: _170  and  _171
REMARK   65  A    between atoms: _173  and  _175
REMARK   66  A    between atoms: _175  and  _176
REMARK   67  A    between atoms: _175  and  _178
REMARK   68  A    between atoms: _178  and  _179
REMARK   69  A    between atoms: _181  and  _183
REMARK   70  A    between atoms: _183  and  _184
REMARK   71  A    between atoms: _183  and  _186
REMARK   72  A    between atoms: _186  and  _187
REMARK   73  A    between atoms: _187  and  _188
REMARK   74  A    between atoms: _188  and  _189
REMARK   75  A    between atoms: _198  and  _200
REMARK   76  A    between atoms: _200  and  _201
REMARK   77  A    between atoms: _200  and  _203
REMARK   78  A    between atoms: _203  and  _204
REMARK   79  A    between atoms: _204  and  _205
REMARK   80  A    between atoms: _210  and  _212
REMARK   81  A    between atoms: _212  and  _213
REMARK   82  A    between atoms: _212  and  _215
REMARK   83  A    between atoms: _215  and  _216
REMARK   84  A    between atoms: _219  and  _221
REMARK   85  A    between atoms: _221  and  _222
REMARK   86  A    between atoms: _221  and  _224
REMARK   87  A    between atoms: _224  and  _225
REMARK   88  A    between atoms: _230  and  _232
REMARK   89  A    between atoms: _232  and  _233
REMARK   90  A    between atoms: _232  and  _235
REMARK   91  A    between atoms: _235  and  _236
REMARK   92  A    between atoms: _241  and  _243
REMARK   93  A    between atoms: _243  and  _244
REMARK   94  A    between atoms: _243  and  _246
REMARK   95  A    between atoms: _246  and  _247
REMARK   96  A    between atoms: _252  and  _253
REMARK   97  A    between atoms: _255  and  _257
REMARK   98  A    between atoms: _257  and  _258
REMARK   99  A    between atoms: _257  and  _260
REMARK  100  A    between atoms: _260  and  _261
REMARK  101  A    between atoms: _266  and  _268
REMARK  102  A    between atoms: _268  and  _269
REMARK  103  A    between atoms: _268  and  _271
REMARK  104  A    between atoms: _271  and  _272
REMARK  105  A    between atoms: _274  and  _276
REMARK  106  A    between atoms: _276  and  _277
REMARK  107  A    between atoms: _276  and  _279
REMARK  108  A    between atoms: _279  and  _280
REMARK  109  A    between atoms: _283  and  _285
REMARK  110  A    between atoms: _285  and  _286
REMARK  111  A    between atoms: _285  and  _288
REMARK  112  A    between atoms: _288  and  _289
REMARK  113  A    between atoms: _292  and  _294
REMARK  114  A    between atoms: _294  and  _295
REMARK  115  A    between atoms: _294  and  _297
REMARK  116  A    between atoms: _297  and  _298
REMARK  117  A    between atoms: _304  and  _306
REMARK  118  A    between atoms: _306  and  _307
REMARK  119  A    between atoms: _306  and  _309
REMARK  120  A    between atoms: _309  and  _310
REMARK                            x       y       z     vdW  Elec       q    Type
REMARK                         _______ _______ _______ _____ _____    ______ ____
ROOT
ATOM      1  O   HOH     1      -7.946  52.347  -1.104  0.00  0.00    +0.000 OA
ENDROOT
TORSDOF 0
REMARK  Name = ../refined-set-2016/4css/4css_pocket.pdb
REMARK  120 active torsions:
REMARK  status: ('A' for Active; 'I' for Inactive)
REMARK    1  A    between atoms: _1  and  _5
REMARK    2  A    between atoms: _5  and  _6
REMARK    3  A    between atoms: _5  and  _8
REMARK    4  A    between atoms: _8  and  _9
REMARK    5  A    between atoms: _15  and  _17
REMARK    6  A    between atoms: _17  and  _18
REMARK    7  A    between atoms: _22  and  _23
REMARK    8  A    between atoms: _28  and  _30
REMARK    9  A    between atoms: _30  and  _31
REMARK   10  A    between atoms: _30  and  _33
REMARK   11  A    between atoms: _33  and  _34
REMARK   12  A    between atoms: _37  and  _39
REMARK   13  A    between atoms: _39  and  _40
REMARK   14  A    between atoms: _42  and  _44
REMARK   15  A    between atoms: _44  and  _45
REMARK   16  A    between atoms: _47  and  _49
REMARK   17  A    between atoms: _49  and  _50
REMARK   18  A    between atoms: _49  and  _52
REMARK   19  A    between atoms: _52  and  _53
REMARK   20  A    between atoms: _58  and  _60
REMARK   21  A    between atoms: _60  and  _61
REMARK   22  A    between atoms: _60  and  _63
REMARK   23  A    between atoms: _63  and  _64
REMARK   24  A    between atoms: _69  and  _71
REMARK   25  A    between atoms: _71  and  _72
REMARK   26  A    between atoms: _71  and  _74
REMARK   27  A    between atoms: _74  and  _75
REMARK   28  A    between atoms: _78  and  _80
REMARK   29  A    between atoms: _80  and  _81
REMARK   30  A    between atoms: _80  and  _83
REMARK   31  A    between atoms: _83  and  _84
REMARK   32  A    between atoms: _89  and  _90
REMARK   33  A    between atoms: _93  and  _94
REMARK   34  A    between atoms: _99  and  _101
REMARK   35  A    between atoms: _101  and  _102
REMARK   36  A    between atoms: _101  and  _104
REMARK   37  A    between atoms: _104  and  _105
REMARK   38  A    between atoms: _105  and  _106
REMARK   39  A    between atoms: _109  and  _111
REMARK   40  A    between atoms: _111  and  _112
REMARK   41  A    between atoms: _111  and  _114
REMARK   42  A    between atoms: _114  and  _115
REMARK   43  A    between atoms: _118  and  _120
REMARK   44  A    between atoms: _120  and  _121
REMARK   45  A    between atoms: _120  and  _123
REMARK   46  A    between atoms: _123  and  _124
REMARK   47  A    between atoms: _127  and  _129
REMARK   48  A    between atoms: _129  and  _130
REMARK   49  A    between atoms: _129  and  _132
REMARK   50  A    between atoms: _132  and  _133
REMARK   51  A    between atoms: _136  and  _138
REMARK   52  A    between atoms: _138  and  _139
REMARK   53  A    between atoms: _138  and  _141
REMARK   54  A    between atoms: _141  and  _142
REMARK   55  A    between atoms: _145  and  _147
REMARK   56  A    between atoms: _147  and  _148
REMARK   57  A    between atoms: _147  and  _150
REMARK   58  A    between atoms: _150  and  _151
REMARK   59  A    between atoms: _156  and  _157
REMARK   60  A    between atoms: _159  and  _161
REMARK   61  A    between atoms: _161  and  _162
REMARK   62  A    between atoms: _161  and  _164
REMARK   63  A    between atoms: _164  and  _165
REMARK   64  A    between atoms: _170  and  _171
REMARK   65  A    between atoms: _173  and  _175
REMARK   66  A    between atoms: _175  and  _176
REMARK   67  A    between atoms: _175  and  _178
REMARK   68  A    between atoms: _178  and  _179
REMARK   69  A    between atoms: _181  and  _183
REMARK   70  A    between atoms: _183  and  _184
REMARK   71  A    between atoms: _183  and  _186
REMARK   72  A    between atoms: _186  and  _187
REMARK   73  A    between atoms: _187  and  _188
REMARK   74  A    between atoms: _188  and  _189
REMARK   75  A    between atoms: _198  and  _200
REMARK   76  A    between atoms: _200  and  _201
REMARK   77  A    between atoms: _200  and  _203
REMARK   78  A    between atoms: _203  and  _204
REMARK   79  A    between atoms: _204  and  _205
REMARK   80  A    between atoms: _210  and  _212
REMARK   81  A    between atoms: _212  and  _213
REMARK   82  A    between atoms: _212  and  _215
REMARK   83  A    between atoms: _215  and  _216
REMARK   84  A    between atoms: _219  and  _221
REMARK   85  A    between atoms: _221  and  _222
REMARK   86  A    between atoms: _221  and  _224
REMARK   87  A    between atoms: _224  and  _225
REMARK   88  A    between atoms: _230  and  _232
REMARK   89  A    between atoms: _232  and  _233
REMARK   90  A    between atoms: _232  and  _235
REMARK   91  A    between atoms: _235  and  _236
REMARK   92  A    between atoms: _241  and  _243
REMARK   93  A    between atoms: _243  and  _244
REMARK   94  A    between atoms: _243  and  _246
REMARK   95  A    between atoms: _246  and  _247
REMARK   96  A    between atoms: _252  and  _253
REMARK   97  A    between atoms: _255  and  _257
REMARK   98  A    between atoms: _257  and  _258
REMARK   99  A    between atoms: _257  and  _260
REMARK  100  A    between atoms: _260  and  _261
REMARK  101  A    between atoms: _266  and  _268
REMARK  102  A    between atoms: _268  and  _269
REMARK  103  A    between atoms: _268  and  _271
REMARK  104  A    between atoms: _271  and  _272
REMARK  105  A    between atoms: _274  and  _276
REMARK  106  A    between atoms: _276  and  _277
REMARK  107  A    between atoms: _276  and  _279
REMARK  108  A    between atoms: _279  and  _280
REMARK  109  A    between atoms: _283  and  _285
REMARK  110  A    between atoms: _285  and  _286
REMARK  111  A    between atoms: _285  and  _288
REMARK  112  A    between atoms: _288  and  _289
REMARK  113  A    between atoms: _292  and  _294
REMARK  114  A    between atoms: _294  and  _295
REMARK  115  A    between atoms: _294  and  _297
REMARK  116  A    between atoms: _297  and  _298
REMARK  117  A    between atoms: _304  and  _306
REMARK  118  A    between atoms: _306  and  _307
REMARK  119  A    between atoms: _306  and  _309
REMARK  120  A    between atoms: _309  and  _310
REMARK                            x       y       z     vdW  Elec       q    Type
REMARK                         _______ _______ _______ _____ _____    ______ ____
ROOT
ATOM      1  O   HOH     1     -12.485  55.023 -11.382  0.00  0.00    +0.000 OA
ENDROOT
TORSDOF 0
REMARK  Name = ../refined-set-2016/4css/4css_pocket.pdb
REMARK  120 active torsions:
REMARK  status: ('A' for Active; 'I' for Inactive)
REMARK    1  A    between atoms: _1  and  _5
REMARK    2  A    between atoms: _5  and  _6
REMARK    3  A    between atoms: _5  and  _8
REMARK    4  A    between atoms: _8  and  _9
REMARK    5  A    between atoms: _15  and  _17
REMARK    6  A    between atoms: _17  and  _18
REMARK    7  A    between atoms: _22  and  _23
REMARK    8  A    between atoms: _28  and  _30
REMARK    9  A    between atoms: _30  and  _31
REMARK   10  A    between atoms: _30  and  _33
REMARK   11  A    between atoms: _33  and  _34
REMARK   12  A    between atoms: _37  and  _39
REMARK   13  A    between atoms: _39  and  _40
REMARK   14  A    between atoms: _42  and  _44
REMARK   15  A    between atoms: _44  and  _45
REMARK   16  A    between atoms: _47  and  _49
REMARK   17  A    between atoms: _49  and  _50
REMARK   18  A    between atoms: _49  and  _52
REMARK   19  A    between atoms: _52  and  _53
REMARK   20  A    between atoms: _58  and  _60
REMARK   21  A    between atoms: _60  and  _61
REMARK   22  A    between atoms: _60  and  _63
REMARK   23  A    between atoms: _63  and  _64
REMARK   24  A    between atoms: _69  and  _71
REMARK   25  A    between atoms: _71  and  _72
REMARK   26  A    between atoms: _71  and  _74
REMARK   27  A    between atoms: _74  and  _75
REMARK   28  A    between atoms: _78  and  _80
REMARK   29  A    between atoms: _80  and  _81
REMARK   30  A    between atoms: _80  and  _83
REMARK   31  A    between atoms: _83  and  _84
REMARK   32  A    between atoms: _89  and  _90
REMARK   33  A    between atoms: _93  and  _94
REMARK   34  A    between atoms: _99  and  _101
REMARK   35  A    between atoms: _101  and  _102
REMARK   36  A    between atoms: _101  and  _104
REMARK   37  A    between atoms: _104  and  _105
REMARK   38  A    between atoms: _105  and  _106
REMARK   39  A    between atoms: _109  and  _111
REMARK   40  A    between atoms: _111  and  _112
REMARK   41  A    between atoms: _111  and  _114
REMARK   42  A    between atoms: _114  and  _115
REMARK   43  A    between atoms: _118  and  _120
REMARK   44  A    between atoms: _120  and  _121
REMARK   45  A    between atoms: _120  and  _123
REMARK   46  A    between atoms: _123  and  _124
REMARK   47  A    between atoms: _127  and  _129
REMARK   48  A    between atoms: _129  and  _130
REMARK   49  A    between atoms: _129  and  _132
REMARK   50  A    between atoms: _132  and  _133
REMARK   51  A    between atoms: _136  and  _138
REMARK   52  A    between atoms: _138  and  _139
REMARK   53  A    between atoms: _138  and  _141
REMARK   54  A    between atoms: _141  and  _142
REMARK   55  A    between atoms: _145  and  _147
REMARK   56  A    between atoms: _147  and  _148
REMARK   57  A    between atoms: _147  and  _150
REMARK   58  A    between atoms: _150  and  _151
REMARK   59  A    between atoms: _156  and  _157
REMARK   60  A    between atoms: _159  and  _161
REMARK   61  A    between atoms: _161  and  _162
REMARK   62  A    between atoms: _161  and  _164
REMARK   63  A    between atoms: _164  and  _165
REMARK   64  A    between atoms: _170  and  _171
REMARK   65  A    between atoms: _173  and  _175
REMARK   66  A    between atoms: _175  and  _176
REMARK   67  A    between atoms: _175  and  _178
REMARK   68  A    between atoms: _178  and  _179
REMARK   69  A    between atoms: _181  and  _183
REMARK   70  A    between atoms: _183  and  _184
REMARK   71  A    between atoms: _183  and  _186
REMARK   72  A    between atoms: _186  and  _187
REMARK   73  A    between atoms: _187  and  _188
REMARK   74  A    between atoms: _188  and  _189
REMARK   75  A    between atoms: _198  and  _200
REMARK   76  A    between atoms: _200  and  _201
REMARK   77  A    between atoms: _200  and  _203
REMARK   78  A    between atoms: _203  and  _204
REMARK   79  A    between atoms: _204  and  _205
REMARK   80  A    between atoms: _210  and  _212
REMARK   81  A    between atoms: _212  and  _213
REMARK   82  A    between atoms: _212  and  _215
REMARK   83  A    between atoms: _215  and  _216
REMARK   84  A    between atoms: _219  and  _221
REMARK   85  A    between atoms: _221  and  _222
REMARK   86  A    between atoms: _221  and  _224
REMARK   87  A    between atoms: _224  and  _225
REMARK   88  A    between atoms: _230  and  _232
REMARK   89  A    between atoms: _232  and  _233
REMARK   90  A    between atoms: _232  and  _235
REMARK   91  A    between atoms: _235  and  _236
REMARK   92  A    between atoms: _241  and  _243
REMARK   93  A    between atoms: _243  and  _244
REMARK   94  A    between atoms: _243  and  _246
REMARK   95  A    between atoms: _246  and  _247
REMARK   96  A    between atoms: _252  and  _253
REMARK   97  A    between atoms: _255  and  _257
REMARK   98  A    between atoms: _257  and  _258
REMARK   99  A    between atoms: _257  and  _260
REMARK  100  A    between atoms: _260  and  _261
REMARK  101  A    between atoms: _266  and  _268
REMARK  102  A    between atoms: _268  and  _269
REMARK  103  A    between atoms: _268  and  _271
REMARK  104  A    between atoms: _271  and  _272
REMARK  105  A    between atoms: _274  and  _276
REMARK  106  A    between atoms: _276  and  _277
REMARK  107  A    between atoms: _276  and  _279
REMARK  108  A    between atoms: _279  and  _280
REMARK  109  A    between atoms: _283  and  _285
REMARK  110  A    between atoms: _285  and  _286
REMARK  111  A    between atoms: _285  and  _288
REMARK  112  A    between atoms: _288  and  _289
REMARK  113  A    between atoms: _292  and  _294
REMARK  114  A    between atoms: _294  and  _295
REMARK  115  A    between atoms: _294  and  _297
REMARK  116  A    between atoms: _297  and  _298
REMARK  117  A    between atoms: _304  and  _306
REMARK  118  A    between atoms: _306  and  _307
REMARK  119  A    between atoms: _306  and  _309
REMARK  120  A    between atoms: _309  and  _310
REMARK                            x       y       z     vdW  Elec       q    Type
REMARK                         _______ _______ _______ _____ _____    ______ ____
ROOT
ATOM      1  O   HOH     1     -11.854  45.791  -8.310  0.00  0.00    +0.000 OA
ENDROOT
TORSDOF 0
REMARK  Name = ../refined-set-2016/4css/4css_pocket.pdb
REMARK  120 active torsions:
REMARK  status: ('A' for Active; 'I' for Inactive)
REMARK    1  A    between atoms: _1  and  _5
REMARK    2  A    between atoms: _5  and  _6
REMARK    3  A    between atoms: _5  and  _8
REMARK    4  A    between atoms: _8  and  _9
REMARK    5  A    between atoms: _15  and  _17
REMARK    6  A    between atoms: _17  and  _18
REMARK    7  A    between atoms: _22  and  _23
REMARK    8  A    between atoms: _28  and  _30
REMARK    9  A    between atoms: _30  and  _31
REMARK   10  A    between atoms: _30  and  _33
REMARK   11  A    between atoms: _33  and  _34
REMARK   12  A    between atoms: _37  and  _39
REMARK   13  A    between atoms: _39  and  _40
REMARK   14  A    between atoms: _42  and  _44
REMARK   15  A    between atoms: _44  and  _45
REMARK   16  A    between atoms: _47  and  _49
REMARK   17  A    between atoms: _49  and  _50
REMARK   18  A    between atoms: _49  and  _52
REMARK   19  A    between atoms: _52  and  _53
REMARK   20  A    between atoms: _58  and  _60
REMARK   21  A    between atoms: _60  and  _61
REMARK   22  A    between atoms: _60  and  _63
REMARK   23  A    between atoms: _63  and  _64
REMARK   24  A    between atoms: _69  and  _71
REMARK   25  A    between atoms: _71  and  _72
REMARK   26  A    between atoms: _71  and  _74
REMARK   27  A    between atoms: _74  and  _75
REMARK   28  A    between atoms: _78  and  _80
REMARK   29  A    between atoms: _80  and  _81
REMARK   30  A    between atoms: _80  and  _83
REMARK   31  A    between atoms: _83  and  _84
REMARK   32  A    between atoms: _89  and  _90
REMARK   33  A    between atoms: _93  and  _94
REMARK   34  A    between atoms: _99  and  _101
REMARK   35  A    between atoms: _101  and  _102
REMARK   36  A    between atoms: _101  and  _104
REMARK   37  A    between atoms: _104  and  _105
REMARK   38  A    between atoms: _105  and  _106
REMARK   39  A    between atoms: _109  and  _111
REMARK   40  A    between atoms: _111  and  _112
REMARK   41  A    between atoms: _111  and  _114
REMARK   42  A    between atoms: _114  and  _115
REMARK   43  A    between atoms: _118  and  _120
REMARK   44  A    between atoms: _120  and  _121
REMARK   45  A    between atoms: _120  and  _123
REMARK   46  A    between atoms: _123  and  _124
REMARK   47  A    between atoms: _127  and  _129
REMARK   48  A    between atoms: _129  and  _130
REMARK   49  A    between atoms: _129  and  _132
REMARK   50  A    between atoms: _132  and  _133
REMARK   51  A    between atoms: _136  and  _138
REMARK   52  A    between atoms: _138  and  _139
REMARK   53  A    between atoms: _138  and  _141
REMARK   54  A    between atoms: _141  and  _142
REMARK   55  A    between atoms: _145  and  _147
REMARK   56  A    between atoms: _147  and  _148
REMARK   57  A    between atoms: _147  and  _150
REMARK   58  A    between atoms: _150  and  _151
REMARK   59  A    between atoms: _156  and  _157
REMARK   60  A    between atoms: _159  and  _161
REMARK   61  A    between atoms: _161  and  _162
REMARK   62  A    between atoms: _161  and  _164
REMARK   63  A    between atoms: _164  and  _165
REMARK   64  A    between atoms: _170  and  _171
REMARK   65  A    between atoms: _173  and  _175
REMARK   66  A    between atoms: _175  and  _176
REMARK   67  A    between atoms: _175  and  _178
REMARK   68  A    between atoms: _178  and  _179
REMARK   69  A    between atoms: _181  and  _183
REMARK   70  A    between atoms: _183  and  _184
REMARK   71  A    between atoms: _183  and  _186
REMARK   72  A    between atoms: _186  and  _187
REMARK   73  A    between atoms: _187  and  _188
REMARK   74  A    between atoms: _188  and  _189
REMARK   75  A    between atoms: _198  and  _200
REMARK   76  A    between atoms: _200  and  _201
REMARK   77  A    between atoms: _200  and  _203
REMARK   78  A    between atoms: _203  and  _204
REMARK   79  A    between atoms: _204  and  _205
REMARK   80  A    between atoms: _210  and  _212
REMARK   81  A    between atoms: _212  and  _213
REMARK   82  A    between atoms: _212  and  _215
REMARK   83  A    between atoms: _215  and  _216
REMARK   84  A    between atoms: _219  and  _221
REMARK   85  A    between atoms: _221  and  _222
REMARK   86  A    between atoms: _221  and  _224
REMARK   87  A    between atoms: _224  and  _225
REMARK   88  A    between atoms: _230  and  _232
REMARK   89  A    between atoms: _232  and  _233
REMARK   90  A    between atoms: _232  and  _235
REMARK   91  A    between atoms: _235  and  _236
REMARK   92  A    between atoms: _241  and  _243
REMARK   93  A    between atoms: _243  and  _244
REMARK   94  A    between atoms: _243  and  _246
REMARK   95  A    between atoms: _246  and  _247
REMARK   96  A    between atoms: _252  and  _253
REMARK   97  A    between atoms: _255  and  _257
REMARK   98  A    between atoms: _257  and  _258
REMARK   99  A    between atoms: _257  and  _260
REMARK  100  A    between atoms: _260  and  _261
REMARK  101  A    between atoms: _266  and  _268
REMARK  102  A    between atoms: _268  and  _269
REMARK  103  A    between atoms: _268  and  _271
REMARK  104  A    between atoms: _271  and  _272
REMARK  105  A    between atoms: _274  and  _276
REMARK  106  A    between atoms: _276  and  _277
REMARK  107  A    between atoms: _276  and  _279
REMARK  108  A    between atoms: _279  and  _280
REMARK  109  A    between atoms: _283  and  _285
REMARK  110  A    between atoms: _285  and  _286
REMARK  111  A    between atoms: _285  and  _288
REMARK  112  A    between atoms: _288  and  _289
REMARK  113  A    between atoms: _292  and  _294
REMARK  114  A    between atoms: _294  and  _295
REMARK  115  A    between atoms: _294  and  _297
REMARK  116  A    between atoms: _297  and  _298
REMARK  117  A    between atoms: _304  and  _306
REMARK  118  A    between atoms: _306  and  _307
REMARK  119  A    between atoms: _306  and  _309
REMARK  120  A    between atoms: _309  and  _310
REMARK                            x       y       z     vdW  Elec       q    Type
REMARK                         _______ _______ _______ _____ _____    ______ ____
ROOT
ATOM      1  O   HOH     1     -10.229  54.583 -12.840  0.00  0.00    +0.000 OA
ENDROOT
TORSDOF 0
REMARK  Name = ../refined-set-2016/4css/4css_pocket.pdb
REMARK  120 active torsions:
REMARK  status: ('A' for Active; 'I' for Inactive)
REMARK    1  A    between atoms: _1  and  _5
REMARK    2  A    between atoms: _5  and  _6
REMARK    3  A    between atoms: _5  and  _8
REMARK    4  A    between atoms: _8  and  _9
REMARK    5  A    between atoms: _15  and  _17
REMARK    6  A    between atoms: _17  and  _18
REMARK    7  A    between atoms: _22  and  _23
REMARK    8  A    between atoms: _28  and  _30
REMARK    9  A    between atoms: _30  and  _31
REMARK   10  A    between atoms: _30  and  _33
REMARK   11  A    between atoms: _33  and  _34
REMARK   12  A    between atoms: _37  and  _39
REMARK   13  A    between atoms: _39  and  _40
REMARK   14  A    between atoms: _42  and  _44
REMARK   15  A    between atoms: _44  and  _45
REMARK   16  A    between atoms: _47  and  _49
REMARK   17  A    between atoms: _49  and  _50
REMARK   18  A    between atoms: _49  and  _52
REMARK   19  A    between atoms: _52  and  _53
REMARK   20  A    between atoms: _58  and  _60
REMARK   21  A    between atoms: _60  and  _61
REMARK   22  A    between atoms: _60  and  _63
REMARK   23  A    between atoms: _63  and  _64
REMARK   24  A    between atoms: _69  and  _71
REMARK   25  A    between atoms: _71  and  _72
REMARK   26  A    between atoms: _71  and  _74
REMARK   27  A    between atoms: _74  and  _75
REMARK   28  A    between atoms: _78  and  _80
REMARK   29  A    between atoms: _80  and  _81
REMARK   30  A    between atoms: _80  and  _83
REMARK   31  A    between atoms: _83  and  _84
REMARK   32  A    between atoms: _89  and  _90
REMARK   33  A    between atoms: _93  and  _94
REMARK   34  A    between atoms: _99  and  _101
REMARK   35  A    between atoms: _101  and  _102
REMARK   36  A    between atoms: _101  and  _104
REMARK   37  A    between atoms: _104  and  _105
REMARK   38  A    between atoms: _105  and  _106
REMARK   39  A    between atoms: _109  and  _111
REMARK   40  A    between atoms: _111  and  _112
REMARK   41  A    between atoms: _111  and  _114
REMARK   42  A    between atoms: _114  and  _115
REMARK   43  A    between atoms: _118  and  _120
REMARK   44  A    between atoms: _120  and  _121
REMARK   45  A    between atoms: _120  and  _123
REMARK   46  A    between atoms: _123  and  _124
REMARK   47  A    between atoms: _127  and  _129
REMARK   48  A    between atoms: _129  and  _130
REMARK   49  A    between atoms: _129  and  _132
REMARK   50  A    between atoms: _132  and  _133
REMARK   51  A    between atoms: _136  and  _138
REMARK   52  A    between atoms: _138  and  _139
REMARK   53  A    between atoms: _138  and  _141
REMARK   54  A    between atoms: _141  and  _142
REMARK   55  A    between atoms: _145  and  _147
REMARK   56  A    between atoms: _147  and  _148
REMARK   57  A    between atoms: _147  and  _150
REMARK   58  A    between atoms: _150  and  _151
REMARK   59  A    between atoms: _156  and  _157
REMARK   60  A    between atoms: _159  and  _161
REMARK   61  A    between atoms: _161  and  _162
REMARK   62  A    between atoms: _161  and  _164
REMARK   63  A    between atoms: _164  and  _165
REMARK   64  A    between atoms: _170  and  _171
REMARK   65  A    between atoms: _173  and  _175
REMARK   66  A    between atoms: _175  and  _176
REMARK   67  A    between atoms: _175  and  _178
REMARK   68  A    between atoms: _178  and  _179
REMARK   69  A    between atoms: _181  and  _183
REMARK   70  A    between atoms: _183  and  _184
REMARK   71  A    between atoms: _183  and  _186
REMARK   72  A    between atoms: _186  and  _187
REMARK   73  A    between atoms: _187  and  _188
REMARK   74  A    between atoms: _188  and  _189
REMARK   75  A    between atoms: _198  and  _200
REMARK   76  A    between atoms: _200  and  _201
REMARK   77  A    between atoms: _200  and  _203
REMARK   78  A    between atoms: _203  and  _204
REMARK   79  A    between atoms: _204  and  _205
REMARK   80  A    between atoms: _210  and  _212
REMARK   81  A    between atoms: _212  and  _213
REMARK   82  A    between atoms: _212  and  _215
REMARK   83  A    between atoms: _215  and  _216
REMARK   84  A    between atoms: _219  and  _221
REMARK   85  A    between atoms: _221  and  _222
REMARK   86  A    between atoms: _221  and  _224
REMARK   87  A    between atoms: _224  and  _225
REMARK   88  A    between atoms: _230  and  _232
REMARK   89  A    between atoms: _232  and  _233
REMARK   90  A    between atoms: _232  and  _235
REMARK   91  A    between atoms: _235  and  _236
REMARK   92  A    between atoms: _241  and  _243
REMARK   93  A    between atoms: _243  and  _244
REMARK   94  A    between atoms: _243  and  _246
REMARK   95  A    between atoms: _246  and  _247
REMARK   96  A    between atoms: _252  and  _253
REMARK   97  A    between atoms: _255  and  _257
REMARK   98  A    between atoms: _257  and  _258
REMARK   99  A    between atoms: _257  and  _260
REMARK  100  A    between atoms: _260  and  _261
REMARK  101  A    between atoms: _266  and  _268
REMARK  102  A    between atoms: _268  and  _269
REMARK  103  A    between atoms: _268  and  _271
REMARK  104  A    between atoms: _271  and  _272
REMARK  105  A    between atoms: _274  and  _276
REMARK  106  A    between atoms: _276  and  _277
REMARK  107  A    between atoms: _276  and  _279
REMARK  108  A    between atoms: _279  and  _280
REMARK  109  A    between atoms: _283  and  _285
REMARK  110  A    between atoms: _285  and  _286
REMARK  111  A    between atoms: _285  and  _288
REMARK  112  A    between atoms: _288  and  _289
REMARK  113  A    between atoms: _292  and  _294
REMARK  114  A    between atoms: _294  and  _295
REMARK  115  A    between atoms: _294  and  _297
REMARK  116  A    between atoms: _297  and  _298
REMARK  117  A    between atoms: _304  and  _306
REMARK  118  A    between atoms: _306  and  _307
REMARK  119  A    between atoms: _306  and  _309
REMARK  120  A    between atoms: _309  and  _310
REMARK                            x       y       z     vdW  Elec       q    Type
REMARK                         _______ _______ _______ _____ _____    ______ ____
ROOT
ATOM      1  O   HOH     1       0.112  42.040  -2.755  0.00  0.00    +0.000 OA
ENDROOT
TORSDOF 0
REMARK  Name = ../refined-set-2016/4css/4css_pocket.pdb
REMARK  120 active torsions:
REMARK  status: ('A' for Active; 'I' for Inactive)
REMARK    1  A    between atoms: _1  and  _5
REMARK    2  A    between atoms: _5  and  _6
REMARK    3  A    between atoms: _5  and  _8
REMARK    4  A    between atoms: _8  and  _9
REMARK    5  A    between atoms: _15  and  _17
REMARK    6  A    between atoms: _17  and  _18
REMARK    7  A    between atoms: _22  and  _23
REMARK    8  A    between atoms: _28  and  _30
REMARK    9  A    between atoms: _30  and  _31
REMARK   10  A    between atoms: _30  and  _33
REMARK   11  A    between atoms: _33  and  _34
REMARK   12  A    between atoms: _37  and  _39
REMARK   13  A    between atoms: _39  and  _40
REMARK   14  A    between atoms: _42  and  _44
REMARK   15  A    between atoms: _44  and  _45
REMARK   16  A    between atoms: _47  and  _49
REMARK   17  A    between atoms: _49  and  _50
REMARK   18  A    between atoms: _49  and  _52
REMARK   19  A    between atoms: _52  and  _53
REMARK   20  A    between atoms: _58  and  _60
REMARK   21  A    between atoms: _60  and  _61
REMARK   22  A    between atoms: _60  and  _63
REMARK   23  A    between atoms: _63  and  _64
REMARK   24  A    between atoms: _69  and  _71
REMARK   25  A    between atoms: _71  and  _72
REMARK   26  A    between atoms: _71  and  _74
REMARK   27  A    between atoms: _74  and  _75
REMARK   28  A    between atoms: _78  and  _80
REMARK   29  A    between atoms: _80  and  _81
REMARK   30  A    between atoms: _80  and  _83
REMARK   31  A    between atoms: _83  and  _84
REMARK   32  A    between atoms: _89  and  _90
REMARK   33  A    between atoms: _93  and  _94
REMARK   34  A    between atoms: _99  and  _101
REMARK   35  A    between atoms: _101  and  _102
REMARK   36  A    between atoms: _101  and  _104
REMARK   37  A    between atoms: _104  and  _105
REMARK   38  A    between atoms: _105  and  _106
REMARK   39  A    between atoms: _109  and  _111
REMARK   40  A    between atoms: _111  and  _112
REMARK   41  A    between atoms: _111  and  _114
REMARK   42  A    between atoms: _114  and  _115
REMARK   43  A    between atoms: _118  and  _120
REMARK   44  A    between atoms: _120  and  _121
REMARK   45  A    between atoms: _120  and  _123
REMARK   46  A    between atoms: _123  and  _124
REMARK   47  A    between atoms: _127  and  _129
REMARK   48  A    between atoms: _129  and  _130
REMARK   49  A    between atoms: _129  and  _132
REMARK   50  A    between atoms: _132  and  _133
REMARK   51  A    between atoms: _136  and  _138
REMARK   52  A    between atoms: _138  and  _139
REMARK   53  A    between atoms: _138  and  _141
REMARK   54  A    between atoms: _141  and  _142
REMARK   55  A    between atoms: _145  and  _147
REMARK   56  A    between atoms: _147  and  _148
REMARK   57  A    between atoms: _147  and  _150
REMARK   58  A    between atoms: _150  and  _151
REMARK   59  A    between atoms: _156  and  _157
REMARK   60  A    between atoms: _159  and  _161
REMARK   61  A    between atoms: _161  and  _162
REMARK   62  A    between atoms: _161  and  _164
REMARK   63  A    between atoms: _164  and  _165
REMARK   64  A    between atoms: _170  and  _171
REMARK   65  A    between atoms: _173  and  _175
REMARK   66  A    between atoms: _175  and  _176
REMARK   67  A    between atoms: _175  and  _178
REMARK   68  A    between atoms: _178  and  _179
REMARK   69  A    between atoms: _181  and  _183
REMARK   70  A    between atoms: _183  and  _184
REMARK   71  A    between atoms: _183  and  _186
REMARK   72  A    between atoms: _186  and  _187
REMARK   73  A    between atoms: _187  and  _188
REMARK   74  A    between atoms: _188  and  _189
REMARK   75  A    between atoms: _198  and  _200
REMARK   76  A    between atoms: _200  and  _201
REMARK   77  A    between atoms: _200  and  _203
REMARK   78  A    between atoms: _203  and  _204
REMARK   79  A    between atoms: _204  and  _205
REMARK   80  A    between atoms: _210  and  _212
REMARK   81  A    between atoms: _212  and  _213
REMARK   82  A    between atoms: _212  and  _215
REMARK   83  A    between atoms: _215  and  _216
REMARK   84  A    between atoms: _219  and  _221
REMARK   85  A    between atoms: _221  and  _222
REMARK   86  A    between atoms: _221  and  _224
REMARK   87  A    between atoms: _224  and  _225
REMARK   88  A    between atoms: _230  and  _232
REMARK   89  A    between atoms: _232  and  _233
REMARK   90  A    between atoms: _232  and  _235
REMARK   91  A    between atoms: _235  and  _236
REMARK   92  A    between atoms: _241  and  _243
REMARK   93  A    between atoms: _243  and  _244
REMARK   94  A    between atoms: _243  and  _246
REMARK   95  A    between atoms: _246  and  _247
REMARK   96  A    between atoms: _252  and  _253
REMARK   97  A    between atoms: _255  and  _257
REMARK   98  A    between atoms: _257  and  _258
REMARK   99  A    between atoms: _257  and  _260
REMARK  100  A    between atoms: _260  and  _261
REMARK  101  A    between atoms: _266  and  _268
REMARK  102  A    between atoms: _268  and  _269
REMARK  103  A    between atoms: _268  and  _271
REMARK  104  A    between atoms: _271  and  _272
REMARK  105  A    between atoms: _274  and  _276
REMARK  106  A    between atoms: _276  and  _277
REMARK  107  A    between atoms: _276  and  _279
REMARK  108  A    between atoms: _279  and  _280
REMARK  109  A    between atoms: _283  and  _285
REMARK  110  A    between atoms: _285  and  _286
REMARK  111  A    between atoms: _285  and  _288
REMARK  112  A    between atoms: _288  and  _289
REMARK  113  A    between atoms: _292  and  _294
REMARK  114  A    between atoms: _294  and  _295
REMARK  115  A    between atoms: _294  and  _297
REMARK  116  A    between atoms: _297  and  _298
REMARK  117  A    between atoms: _304  and  _306
REMARK  118  A    between atoms: _306  and  _307
REMARK  119  A    between atoms: _306  and  _309
REMARK  120  A    between atoms: _309  and  _310
REMARK                            x       y       z     vdW  Elec       q    Type
REMARK                         _______ _______ _______ _____ _____    ______ ____
ROOT
ATOM      1  O   HOH     1     -11.908  41.747  -8.732  0.00  0.00    +0.000 OA
ENDROOT
TORSDOF 0
REMARK  Name = ../refined-set-2016/4css/4css_pocket.pdb
REMARK  120 active torsions:
REMARK  status: ('A' for Active; 'I' for Inactive)
REMARK    1  A    between atoms: _1  and  _5
REMARK    2  A    between atoms: _5  and  _6
REMARK    3  A    between atoms: _5  and  _8
REMARK    4  A    between atoms: _8  and  _9
REMARK    5  A    between atoms: _15  and  _17
REMARK    6  A    between atoms: _17  and  _18
REMARK    7  A    between atoms: _22  and  _23
REMARK    8  A    between atoms: _28  and  _30
REMARK    9  A    between atoms: _30  and  _31
REMARK   10  A    between atoms: _30  and  _33
REMARK   11  A    between atoms: _33  and  _34
REMARK   12  A    between atoms: _37  and  _39
REMARK   13  A    between atoms: _39  and  _40
REMARK   14  A    between atoms: _42  and  _44
REMARK   15  A    between atoms: _44  and  _45
REMARK   16  A    between atoms: _47  and  _49
REMARK   17  A    between atoms: _49  and  _50
REMARK   18  A    between atoms: _49  and  _52
REMARK   19  A    between atoms: _52  and  _53
REMARK   20  A    between atoms: _58  and  _60
REMARK   21  A    between atoms: _60  and  _61
REMARK   22  A    between atoms: _60  and  _63
REMARK   23  A    between atoms: _63  and  _64
REMARK   24  A    between atoms: _69  and  _71
REMARK   25  A    between atoms: _71  and  _72
REMARK   26  A    between atoms: _71  and  _74
REMARK   27  A    between atoms: _74  and  _75
REMARK   28  A    between atoms: _78  and  _80
REMARK   29  A    between atoms: _80  and  _81
REMARK   30  A    between atoms: _80  and  _83
REMARK   31  A    between atoms: _83  and  _84
REMARK   32  A    between atoms: _89  and  _90
REMARK   33  A    between atoms: _93  and  _94
REMARK   34  A    between atoms: _99  and  _101
REMARK   35  A    between atoms: _101  and  _102
REMARK   36  A    between atoms: _101  and  _104
REMARK   37  A    between atoms: _104  and  _105
REMARK   38  A    between atoms: _105  and  _106
REMARK   39  A    between atoms: _109  and  _111
REMARK   40  A    between atoms: _111  and  _112
REMARK   41  A    between atoms: _111  and  _114
REMARK   42  A    between atoms: _114  and  _115
REMARK   43  A    between atoms: _118  and  _120
REMARK   44  A    between atoms: _120  and  _121
REMARK   45  A    between atoms: _120  and  _123
REMARK   46  A    between atoms: _123  and  _124
REMARK   47  A    between atoms: _127  and  _129
REMARK   48  A    between atoms: _129  and  _130
REMARK   49  A    between atoms: _129  and  _132
REMARK   50  A    between atoms: _132  and  _133
REMARK   51  A    between atoms: _136  and  _138
REMARK   52  A    between atoms: _138  and  _139
REMARK   53  A    between atoms: _138  and  _141
REMARK   54  A    between atoms: _141  and  _142
REMARK   55  A    between atoms: _145  and  _147
REMARK   56  A    between atoms: _147  and  _148
REMARK   57  A    between atoms: _147  and  _150
REMARK   58  A    between atoms: _150  and  _151
REMARK   59  A    between atoms: _156  and  _157
REMARK   60  A    between atoms: _159  and  _161
REMARK   61  A    between atoms: _161  and  _162
REMARK   62  A    between atoms: _161  and  _164
REMARK   63  A    between atoms: _164  and  _165
REMARK   64  A    between atoms: _170  and  _171
REMARK   65  A    between atoms: _173  and  _175
REMARK   66  A    between atoms: _175  and  _176
REMARK   67  A    between atoms: _175  and  _178
REMARK   68  A    between atoms: _178  and  _179
REMARK   69  A    between atoms: _181  and  _183
REMARK   70  A    between atoms: _183  and  _184
REMARK   71  A    between atoms: _183  and  _186
REMARK   72  A    between atoms: _186  and  _187
REMARK   73  A    between atoms: _187  and  _188
REMARK   74  A    between atoms: _188  and  _189
REMARK   75  A    between atoms: _198  and  _200
REMARK   76  A    between atoms: _200  and  _201
REMARK   77  A    between atoms: _200  and  _203
REMARK   78  A    between atoms: _203  and  _204
REMARK   79  A    between atoms: _204  and  _205
REMARK   80  A    between atoms: _210  and  _212
REMARK   81  A    between atoms: _212  and  _213
REMARK   82  A    between atoms: _212  and  _215
REMARK   83  A    between atoms: _215  and  _216
REMARK   84  A    between atoms: _219  and  _221
REMARK   85  A    between atoms: _221  and  _222
REMARK   86  A    between atoms: _221  and  _224
REMARK   87  A    between atoms: _224  and  _225
REMARK   88  A    between atoms: _230  and  _232
REMARK   89  A    between atoms: _232  and  _233
REMARK   90  A    between atoms: _232  and  _235
REMARK   91  A    between atoms: _235  and  _236
REMARK   92  A    between atoms: _241  and  _243
REMARK   93  A    between atoms: _243  and  _244
REMARK   94  A    between atoms: _243  and  _246
REMARK   95  A    between atoms: _246  and  _247
REMARK   96  A    between atoms: _252  and  _253
REMARK   97  A    between atoms: _255  and  _257
REMARK   98  A    between atoms: _257  and  _258
REMARK   99  A    between atoms: _257  and  _260
REMARK  100  A    between atoms: _260  and  _261
REMARK  101  A    between atoms: _266  and  _268
REMARK  102  A    between atoms: _268  and  _269
REMARK  103  A    between atoms: _268  and  _271
REMARK  104  A    between atoms: _271  and  _272
REMARK  105  A    between atoms: _274  and  _276
REMARK  106  A    between atoms: _276  and  _277
REMARK  107  A    between atoms: _276  and  _279
REMARK  108  A    between atoms: _279  and  _280
REMARK  109  A    between atoms: _283  and  _285
REMARK  110  A    between atoms: _285  and  _286
REMARK  111  A    between atoms: _285  and  _288
REMARK  112  A    between atoms: _288  and  _289
REMARK  113  A    between atoms: _292  and  _294
REMARK  114  A    between atoms: _294  and  _295
REMARK  115  A    between atoms: _294  and  _297
REMARK  116  A    between atoms: _297  and  _298
REMARK  117  A    between atoms: _304  and  _306
REMARK  118  A    between atoms: _306  and  _307
REMARK  119  A    between atoms: _306  and  _309
REMARK  120  A    between atoms: _309  and  _310
REMARK                            x       y       z     vdW  Elec       q    Type
REMARK                         _______ _______ _______ _____ _____    ______ ____
ROOT
ATOM      1  O   HOH     1      -1.111  39.935  -9.828  0.00  0.00    +0.000 OA
ENDROOT
TORSDOF 0
REMARK  Name = ../refined-set-2016/4css/4css_pocket.pdb
REMARK  120 active torsions:
REMARK  status: ('A' for Active; 'I' for Inactive)
REMARK    1  A    between atoms: _1  and  _5
REMARK    2  A    between atoms: _5  and  _6
REMARK    3  A    between atoms: _5  and  _8
REMARK    4  A    between atoms: _8  and  _9
REMARK    5  A    between atoms: _15  and  _17
REMARK    6  A    between atoms: _17  and  _18
REMARK    7  A    between atoms: _22  and  _23
REMARK    8  A    between atoms: _28  and  _30
REMARK    9  A    between atoms: _30  and  _31
REMARK   10  A    between atoms: _30  and  _33
REMARK   11  A    between atoms: _33  and  _34
REMARK   12  A    between atoms: _37  and  _39
REMARK   13  A    between atoms: _39  and  _40
REMARK   14  A    between atoms: _42  and  _44
REMARK   15  A    between atoms: _44  and  _45
REMARK   16  A    between atoms: _47  and  _49
REMARK   17  A    between atoms: _49  and  _50
REMARK   18  A    between atoms: _49  and  _52
REMARK   19  A    between atoms: _52  and  _53
REMARK   20  A    between atoms: _58  and  _60
REMARK   21  A    between atoms: _60  and  _61
REMARK   22  A    between atoms: _60  and  _63
REMARK   23  A    between atoms: _63  and  _64
REMARK   24  A    between atoms: _69  and  _71
REMARK   25  A    between atoms: _71  and  _72
REMARK   26  A    between atoms: _71  and  _74
REMARK   27  A    between atoms: _74  and  _75
REMARK   28  A    between atoms: _78  and  _80
REMARK   29  A    between atoms: _80  and  _81
REMARK   30  A    between atoms: _80  and  _83
REMARK   31  A    between atoms: _83  and  _84
REMARK   32  A    between atoms: _89  and  _90
REMARK   33  A    between atoms: _93  and  _94
REMARK   34  A    between atoms: _99  and  _101
REMARK   35  A    between atoms: _101  and  _102
REMARK   36  A    between atoms: _101  and  _104
REMARK   37  A    between atoms: _104  and  _105
REMARK   38  A    between atoms: _105  and  _106
REMARK   39  A    between atoms: _109  and  _111
REMARK   40  A    between atoms: _111  and  _112
REMARK   41  A    between atoms: _111  and  _114
REMARK   42  A    between atoms: _114  and  _115
REMARK   43  A    between atoms: _118  and  _120
REMARK   44  A    between atoms: _120  and  _121
REMARK   45  A    between atoms: _120  and  _123
REMARK   46  A    between atoms: _123  and  _124
REMARK   47  A    between atoms: _127  and  _129
REMARK   48  A    between atoms: _129  and  _130
REMARK   49  A    between atoms: _129  and  _132
REMARK   50  A    between atoms: _132  and  _133
REMARK   51  A    between atoms: _136  and  _138
REMARK   52  A    between atoms: _138  and  _139
REMARK   53  A    between atoms: _138  and  _141
REMARK   54  A    between atoms: _141  and  _142
REMARK   55  A    between atoms: _145  and  _147
REMARK   56  A    between atoms: _147  and  _148
REMARK   57  A    between atoms: _147  and  _150
REMARK   58  A    between atoms: _150  and  _151
REMARK   59  A    between atoms: _156  and  _157
REMARK   60  A    between atoms: _159  and  _161
REMARK   61  A    between atoms: _161  and  _162
REMARK   62  A    between atoms: _161  and  _164
REMARK   63  A    between atoms: _164  and  _165
REMARK   64  A    between atoms: _170  and  _171
REMARK   65  A    between atoms: _173  and  _175
REMARK   66  A    between atoms: _175  and  _176
REMARK   67  A    between atoms: _175  and  _178
REMARK   68  A    between atoms: _178  and  _179
REMARK   69  A    between atoms: _181  and  _183
REMARK   70  A    between atoms: _183  and  _184
REMARK   71  A    between atoms: _183  and  _186
REMARK   72  A    between atoms: _186  and  _187
REMARK   73  A    between atoms: _187  and  _188
REMARK   74  A    between atoms: _188  and  _189
REMARK   75  A    between atoms: _198  and  _200
REMARK   76  A    between atoms: _200  and  _201
REMARK   77  A    between atoms: _200  and  _203
REMARK   78  A    between atoms: _203  and  _204
REMARK   79  A    between atoms: _204  and  _205
REMARK   80  A    between atoms: _210  and  _212
REMARK   81  A    between atoms: _212  and  _213
REMARK   82  A    between atoms: _212  and  _215
REMARK   83  A    between atoms: _215  and  _216
REMARK   84  A    between atoms: _219  and  _221
REMARK   85  A    between atoms: _221  and  _222
REMARK   86  A    between atoms: _221  and  _224
REMARK   87  A    between atoms: _224  and  _225
REMARK   88  A    between atoms: _230  and  _232
REMARK   89  A    between atoms: _232  and  _233
REMARK   90  A    between atoms: _232  and  _235
REMARK   91  A    between atoms: _235  and  _236
REMARK   92  A    between atoms: _241  and  _243
REMARK   93  A    between atoms: _243  and  _244
REMARK   94  A    between atoms: _243  and  _246
REMARK   95  A    between atoms: _246  and  _247
REMARK   96  A    between atoms: _252  and  _253
REMARK   97  A    between atoms: _255  and  _257
REMARK   98  A    between atoms: _257  and  _258
REMARK   99  A    between atoms: _257  and  _260
REMARK  100  A    between atoms: _260  and  _261
REMARK  101  A    between atoms: _266  and  _268
REMARK  102  A    between atoms: _268  and  _269
REMARK  103  A    between atoms: _268  and  _271
REMARK  104  A    between atoms: _271  and  _272
REMARK  105  A    between atoms: _274  and  _276
REMARK  106  A    between atoms: _276  and  _277
REMARK  107  A    between atoms: _276  and  _279
REMARK  108  A    between atoms: _279  and  _280
REMARK  109  A    between atoms: _283  and  _285
REMARK  110  A    between atoms: _285  and  _286
REMARK  111  A    between atoms: _285  and  _288
REMARK  112  A    between atoms: _288  and  _289
REMARK  113  A    between atoms: _292  and  _294
REMARK  114  A    between atoms: _294  and  _295
REMARK  115  A    between atoms: _294  and  _297
REMARK  116  A    between atoms: _297  and  _298
REMARK  117  A    between atoms: _304  and  _306
REMARK  118  A    between atoms: _306  and  _307
REMARK  119  A    between atoms: _306  and  _309
REMARK  120  A    between atoms: _309  and  _310
REMARK                            x       y       z     vdW  Elec       q    Type
REMARK                         _______ _______ _______ _____ _____    ______ ____
ROOT
ATOM      1  O   HOH     1      -2.232  41.300 -11.674  0.00  0.00    +0.000 OA
ENDROOT
TORSDOF 0
REMARK  Name = ../refined-set-2016/4css/4css_pocket.pdb
REMARK  120 active torsions:
REMARK  status: ('A' for Active; 'I' for Inactive)
REMARK    1  A    between atoms: _1  and  _5
REMARK    2  A    between atoms: _5  and  _6
REMARK    3  A    between atoms: _5  and  _8
REMARK    4  A    between atoms: _8  and  _9
REMARK    5  A    between atoms: _15  and  _17
REMARK    6  A    between atoms: _17  and  _18
REMARK    7  A    between atoms: _22  and  _23
REMARK    8  A    between atoms: _28  and  _30
REMARK    9  A    between atoms: _30  and  _31
REMARK   10  A    between atoms: _30  and  _33
REMARK   11  A    between atoms: _33  and  _34
REMARK   12  A    between atoms: _37  and  _39
REMARK   13  A    between atoms: _39  and  _40
REMARK   14  A    between atoms: _42  and  _44
REMARK   15  A    between atoms: _44  and  _45
REMARK   16  A    between atoms: _47  and  _49
REMARK   17  A    between atoms: _49  and  _50
REMARK   18  A    between atoms: _49  and  _52
REMARK   19  A    between atoms: _52  and  _53
REMARK   20  A    between atoms: _58  and  _60
REMARK   21  A    between atoms: _60  and  _61
REMARK   22  A    between atoms: _60  and  _63
REMARK   23  A    between atoms: _63  and  _64
REMARK   24  A    between atoms: _69  and  _71
REMARK   25  A    between atoms: _71  and  _72
REMARK   26  A    between atoms: _71  and  _74
REMARK   27  A    between atoms: _74  and  _75
REMARK   28  A    between atoms: _78  and  _80
REMARK   29  A    between atoms: _80  and  _81
REMARK   30  A    between atoms: _80  and  _83
REMARK   31  A    between atoms: _83  and  _84
REMARK   32  A    between atoms: _89  and  _90
REMARK   33  A    between atoms: _93  and  _94
REMARK   34  A    between atoms: _99  and  _101
REMARK   35  A    between atoms: _101  and  _102
REMARK   36  A    between atoms: _101  and  _104
REMARK   37  A    between atoms: _104  and  _105
REMARK   38  A    between atoms: _105  and  _106
REMARK   39  A    between atoms: _109  and  _111
REMARK   40  A    between atoms: _111  and  _112
REMARK   41  A    between atoms: _111  and  _114
REMARK   42  A    between atoms: _114  and  _115
REMARK   43  A    between atoms: _118  and  _120
REMARK   44  A    between atoms: _120  and  _121
REMARK   45  A    between atoms: _120  and  _123
REMARK   46  A    between atoms: _123  and  _124
REMARK   47  A    between atoms: _127  and  _129
REMARK   48  A    between atoms: _129  and  _130
REMARK   49  A    between atoms: _129  and  _132
REMARK   50  A    between atoms: _132  and  _133
REMARK   51  A    between atoms: _136  and  _138
REMARK   52  A    between atoms: _138  and  _139
REMARK   53  A    between atoms: _138  and  _141
REMARK   54  A    between atoms: _141  and  _142
REMARK   55  A    between atoms: _145  and  _147
REMARK   56  A    between atoms: _147  and  _148
REMARK   57  A    between atoms: _147  and  _150
REMARK   58  A    between atoms: _150  and  _151
REMARK   59  A    between atoms: _156  and  _157
REMARK   60  A    between atoms: _159  and  _161
REMARK   61  A    between atoms: _161  and  _162
REMARK   62  A    between atoms: _161  and  _164
REMARK   63  A    between atoms: _164  and  _165
REMARK   64  A    between atoms: _170  and  _171
REMARK   65  A    between atoms: _173  and  _175
REMARK   66  A    between atoms: _175  and  _176
REMARK   67  A    between atoms: _175  and  _178
REMARK   68  A    between atoms: _178  and  _179
REMARK   69  A    between atoms: _181  and  _183
REMARK   70  A    between atoms: _183  and  _184
REMARK   71  A    between atoms: _183  and  _186
REMARK   72  A    between atoms: _186  and  _187
REMARK   73  A    between atoms: _187  and  _188
REMARK   74  A    between atoms: _188  and  _189
REMARK   75  A    between atoms: _198  and  _200
REMARK   76  A    between atoms: _200  and  _201
REMARK   77  A    between atoms: _200  and  _203
REMARK   78  A    between atoms: _203  and  _204
REMARK   79  A    between atoms: _204  and  _205
REMARK   80  A    between atoms: _210  and  _212
REMARK   81  A    between atoms: _212  and  _213
REMARK   82  A    between atoms: _212  and  _215
REMARK   83  A    between atoms: _215  and  _216
REMARK   84  A    between atoms: _219  and  _221
REMARK   85  A    between atoms: _221  and  _222
REMARK   86  A    between atoms: _221  and  _224
REMARK   87  A    between atoms: _224  and  _225
REMARK   88  A    between atoms: _230  and  _232
REMARK   89  A    between atoms: _232  and  _233
REMARK   90  A    between atoms: _232  and  _235
REMARK   91  A    between atoms: _235  and  _236
REMARK   92  A    between atoms: _241  and  _243
REMARK   93  A    between atoms: _243  and  _244
REMARK   94  A    between atoms: _243  and  _246
REMARK   95  A    between atoms: _246  and  _247
REMARK   96  A    between atoms: _252  and  _253
REMARK   97  A    between atoms: _255  and  _257
REMARK   98  A    between atoms: _257  and  _258
REMARK   99  A    between atoms: _257  and  _260
REMARK  100  A    between atoms: _260  and  _261
REMARK  101  A    between atoms: _266  and  _268
REMARK  102  A    between atoms: _268  and  _269
REMARK  103  A    between atoms: _268  and  _271
REMARK  104  A    between atoms: _271  and  _272
REMARK  105  A    between atoms: _274  and  _276
REMARK  106  A    between atoms: _276  and  _277
REMARK  107  A    between atoms: _276  and  _279
REMARK  108  A    between atoms: _279  and  _280
REMARK  109  A    between atoms: _283  and  _285
REMARK  110  A    between atoms: _285  and  _286
REMARK  111  A    between atoms: _285  and  _288
REMARK  112  A    between atoms: _288  and  _289
REMARK  113  A    between atoms: _292  and  _294
REMARK  114  A    between atoms: _294  and  _295
REMARK  115  A    between atoms: _294  and  _297
REMARK  116  A    between atoms: _297  and  _298
REMARK  117  A    between atoms: _304  and  _306
REMARK  118  A    between atoms: _306  and  _307
REMARK  119  A    between atoms: _306  and  _309
REMARK  120  A    between atoms: _309  and  _310
REMARK                            x       y       z     vdW  Elec       q    Type
REMARK                         _______ _______ _______ _____ _____    ______ ____
ROOT
ATOM      1  O   HOH     1      -1.159  43.871 -11.128  0.00  0.00    +0.000 OA
ENDROOT
TORSDOF 0
REMARK  Name = ../refined-set-2016/4css/4css_pocket.pdb
REMARK  120 active torsions:
REMARK  status: ('A' for Active; 'I' for Inactive)
REMARK    1  A    between atoms: _1  and  _5
REMARK    2  A    between atoms: _5  and  _6
REMARK    3  A    between atoms: _5  and  _8
REMARK    4  A    between atoms: _8  and  _9
REMARK    5  A    between atoms: _15  and  _17
REMARK    6  A    between atoms: _17  and  _18
REMARK    7  A    between atoms: _22  and  _23
REMARK    8  A    between atoms: _28  and  _30
REMARK    9  A    between atoms: _30  and  _31
REMARK   10  A    between atoms: _30  and  _33
REMARK   11  A    between atoms: _33  and  _34
REMARK   12  A    between atoms: _37  and  _39
REMARK   13  A    between atoms: _39  and  _40
REMARK   14  A    between atoms: _42  and  _44
REMARK   15  A    between atoms: _44  and  _45
REMARK   16  A    between atoms: _47  and  _49
REMARK   17  A    between atoms: _49  and  _50
REMARK   18  A    between atoms: _49  and  _52
REMARK   19  A    between atoms: _52  and  _53
REMARK   20  A    between atoms: _58  and  _60
REMARK   21  A    between atoms: _60  and  _61
REMARK   22  A    between atoms: _60  and  _63
REMARK   23  A    between atoms: _63  and  _64
REMARK   24  A    between atoms: _69  and  _71
REMARK   25  A    between atoms: _71  and  _72
REMARK   26  A    between atoms: _71  and  _74
REMARK   27  A    between atoms: _74  and  _75
REMARK   28  A    between atoms: _78  and  _80
REMARK   29  A    between atoms: _80  and  _81
REMARK   30  A    between atoms: _80  and  _83
REMARK   31  A    between atoms: _83  and  _84
REMARK   32  A    between atoms: _89  and  _90
REMARK   33  A    between atoms: _93  and  _94
REMARK   34  A    between atoms: _99  and  _101
REMARK   35  A    between atoms: _101  and  _102
REMARK   36  A    between atoms: _101  and  _104
REMARK   37  A    between atoms: _104  and  _105
REMARK   38  A    between atoms: _105  and  _106
REMARK   39  A    between atoms: _109  and  _111
REMARK   40  A    between atoms: _111  and  _112
REMARK   41  A    between atoms: _111  and  _114
REMARK   42  A    between atoms: _114  and  _115
REMARK   43  A    between atoms: _118  and  _120
REMARK   44  A    between atoms: _120  and  _121
REMARK   45  A    between atoms: _120  and  _123
REMARK   46  A    between atoms: _123  and  _124
REMARK   47  A    between atoms: _127  and  _129
REMARK   48  A    between atoms: _129  and  _130
REMARK   49  A    between atoms: _129  and  _132
REMARK   50  A    between atoms: _132  and  _133
REMARK   51  A    between atoms: _136  and  _138
REMARK   52  A    between atoms: _138  and  _139
REMARK   53  A    between atoms: _138  and  _141
REMARK   54  A    between atoms: _141  and  _142
REMARK   55  A    between atoms: _145  and  _147
REMARK   56  A    between atoms: _147  and  _148
REMARK   57  A    between atoms: _147  and  _150
REMARK   58  A    between atoms: _150  and  _151
REMARK   59  A    between atoms: _156  and  _157
REMARK   60  A    between atoms: _159  and  _161
REMARK   61  A    between atoms: _161  and  _162
REMARK   62  A    between atoms: _161  and  _164
REMARK   63  A    between atoms: _164  and  _165
REMARK   64  A    between atoms: _170  and  _171
REMARK   65  A    between atoms: _173  and  _175
REMARK   66  A    between atoms: _175  and  _176
REMARK   67  A    between atoms: _175  and  _178
REMARK   68  A    between atoms: _178  and  _179
REMARK   69  A    between atoms: _181  and  _183
REMARK   70  A    between atoms: _183  and  _184
REMARK   71  A    between atoms: _183  and  _186
REMARK   72  A    between atoms: _186  and  _187
REMARK   73  A    between atoms: _187  and  _188
REMARK   74  A    between atoms: _188  and  _189
REMARK   75  A    between atoms: _198  and  _200
REMARK   76  A    between atoms: _200  and  _201
REMARK   77  A    between atoms: _200  and  _203
REMARK   78  A    between atoms: _203  and  _204
REMARK   79  A    between atoms: _204  and  _205
REMARK   80  A    between atoms: _210  and  _212
REMARK   81  A    between atoms: _212  and  _213
REMARK   82  A    between atoms: _212  and  _215
REMARK   83  A    between atoms: _215  and  _216
REMARK   84  A    between atoms: _219  and  _221
REMARK   85  A    between atoms: _221  and  _222
REMARK   86  A    between atoms: _221  and  _224
REMARK   87  A    between atoms: _224  and  _225
REMARK   88  A    between atoms: _230  and  _232
REMARK   89  A    between atoms: _232  and  _233
REMARK   90  A    between atoms: _232  and  _235
REMARK   91  A    between atoms: _235  and  _236
REMARK   92  A    between atoms: _241  and  _243
REMARK   93  A    between atoms: _243  and  _244
REMARK   94  A    between atoms: _243  and  _246
REMARK   95  A    between atoms: _246  and  _247
REMARK   96  A    between atoms: _252  and  _253
REMARK   97  A    between atoms: _255  and  _257
REMARK   98  A    between atoms: _257  and  _258
REMARK   99  A    between atoms: _257  and  _260
REMARK  100  A    between atoms: _260  and  _261
REMARK  101  A    between atoms: _266  and  _268
REMARK  102  A    between atoms: _268  and  _269
REMARK  103  A    between atoms: _268  and  _271
REMARK  104  A    between atoms: _271  and  _272
REMARK  105  A    between atoms: _274  and  _276
REMARK  106  A    between atoms: _276  and  _277
REMARK  107  A    between atoms: _276  and  _279
REMARK  108  A    between atoms: _279  and  _280
REMARK  109  A    between atoms: _283  and  _285
REMARK  110  A    between atoms: _285  and  _286
REMARK  111  A    between atoms: _285  and  _288
REMARK  112  A    between atoms: _288  and  _289
REMARK  113  A    between atoms: _292  and  _294
REMARK  114  A    between atoms: _294  and  _295
REMARK  115  A    between atoms: _294  and  _297
REMARK  116  A    between atoms: _297  and  _298
REMARK  117  A    between atoms: _304  and  _306
REMARK  118  A    between atoms: _306  and  _307
REMARK  119  A    between atoms: _306  and  _309
REMARK  120  A    between atoms: _309  and  _310
REMARK                            x       y       z     vdW  Elec       q    Type
REMARK                         _______ _______ _______ _____ _____    ______ ____
ROOT
ATOM      1  O   HOH     1       2.737  40.390  -9.877  0.00  0.00    +0.000 OA
ENDROOT
TORSDOF 0
REMARK  Name = ../refined-set-2016/4css/4css_pocket.pdb
REMARK  120 active torsions:
REMARK  status: ('A' for Active; 'I' for Inactive)
REMARK    1  A    between atoms: _1  and  _5
REMARK    2  A    between atoms: _5  and  _6
REMARK    3  A    between atoms: _5  and  _8
REMARK    4  A    between atoms: _8  and  _9
REMARK    5  A    between atoms: _15  and  _17
REMARK    6  A    between atoms: _17  and  _18
REMARK    7  A    between atoms: _22  and  _23
REMARK    8  A    between atoms: _28  and  _30
REMARK    9  A    between atoms: _30  and  _31
REMARK   10  A    between atoms: _30  and  _33
REMARK   11  A    between atoms: _33  and  _34
REMARK   12  A    between atoms: _37  and  _39
REMARK   13  A    between atoms: _39  and  _40
REMARK   14  A    between atoms: _42  and  _44
REMARK   15  A    between atoms: _44  and  _45
REMARK   16  A    between atoms: _47  and  _49
REMARK   17  A    between atoms: _49  and  _50
REMARK   18  A    between atoms: _49  and  _52
REMARK   19  A    between atoms: _52  and  _53
REMARK   20  A    between atoms: _58  and  _60
REMARK   21  A    between atoms: _60  and  _61
REMARK   22  A    between atoms: _60  and  _63
REMARK   23  A    between atoms: _63  and  _64
REMARK   24  A    between atoms: _69  and  _71
REMARK   25  A    between atoms: _71  and  _72
REMARK   26  A    between atoms: _71  and  _74
REMARK   27  A    between atoms: _74  and  _75
REMARK   28  A    between atoms: _78  and  _80
REMARK   29  A    between atoms: _80  and  _81
REMARK   30  A    between atoms: _80  and  _83
REMARK   31  A    between atoms: _83  and  _84
REMARK   32  A    between atoms: _89  and  _90
REMARK   33  A    between atoms: _93  and  _94
REMARK   34  A    between atoms: _99  and  _101
REMARK   35  A    between atoms: _101  and  _102
REMARK   36  A    between atoms: _101  and  _104
REMARK   37  A    between atoms: _104  and  _105
REMARK   38  A    between atoms: _105  and  _106
REMARK   39  A    between atoms: _109  and  _111
REMARK   40  A    between atoms: _111  and  _112
REMARK   41  A    between atoms: _111  and  _114
REMARK   42  A    between atoms: _114  and  _115
REMARK   43  A    between atoms: _118  and  _120
REMARK   44  A    between atoms: _120  and  _121
REMARK   45  A    between atoms: _120  and  _123
REMARK   46  A    between atoms: _123  and  _124
REMARK   47  A    between atoms: _127  and  _129
REMARK   48  A    between atoms: _129  and  _130
REMARK   49  A    between atoms: _129  and  _132
REMARK   50  A    between atoms: _132  and  _133
REMARK   51  A    between atoms: _136  and  _138
REMARK   52  A    between atoms: _138  and  _139
REMARK   53  A    between atoms: _138  and  _141
REMARK   54  A    between atoms: _141  and  _142
REMARK   55  A    between atoms: _145  and  _147
REMARK   56  A    between atoms: _147  and  _148
REMARK   57  A    between atoms: _147  and  _150
REMARK   58  A    between atoms: _150  and  _151
REMARK   59  A    between atoms: _156  and  _157
REMARK   60  A    between atoms: _159  and  _161
REMARK   61  A    between atoms: _161  and  _162
REMARK   62  A    between atoms: _161  and  _164
REMARK   63  A    between atoms: _164  and  _165
REMARK   64  A    between atoms: _170  and  _171
REMARK   65  A    between atoms: _173  and  _175
REMARK   66  A    between atoms: _175  and  _176
REMARK   67  A    between atoms: _175  and  _178
REMARK   68  A    between atoms: _178  and  _179
REMARK   69  A    between atoms: _181  and  _183
REMARK   70  A    between atoms: _183  and  _184
REMARK   71  A    between atoms: _183  and  _186
REMARK   72  A    between atoms: _186  and  _187
REMARK   73  A    between atoms: _187  and  _188
REMARK   74  A    between atoms: _188  and  _189
REMARK   75  A    between atoms: _198  and  _200
REMARK   76  A    between atoms: _200  and  _201
REMARK   77  A    between atoms: _200  and  _203
REMARK   78  A    between atoms: _203  and  _204
REMARK   79  A    between atoms: _204  and  _205
REMARK   80  A    between atoms: _210  and  _212
REMARK   81  A    between atoms: _212  and  _213
REMARK   82  A    between atoms: _212  and  _215
REMARK   83  A    between atoms: _215  and  _216
REMARK   84  A    between atoms: _219  and  _221
REMARK   85  A    between atoms: _221  and  _222
REMARK   86  A    between atoms: _221  and  _224
REMARK   87  A    between atoms: _224  and  _225
REMARK   88  A    between atoms: _230  and  _232
REMARK   89  A    between atoms: _232  and  _233
REMARK   90  A    between atoms: _232  and  _235
REMARK   91  A    between atoms: _235  and  _236
REMARK   92  A    between atoms: _241  and  _243
REMARK   93  A    between atoms: _243  and  _244
REMARK   94  A    between atoms: _243  and  _246
REMARK   95  A    between atoms: _246  and  _247
REMARK   96  A    between atoms: _252  and  _253
REMARK   97  A    between atoms: _255  and  _257
REMARK   98  A    between atoms: _257  and  _258
REMARK   99  A    between atoms: _257  and  _260
REMARK  100  A    between atoms: _260  and  _261
REMARK  101  A    between atoms: _266  and  _268
REMARK  102  A    between atoms: _268  and  _269
REMARK  103  A    between atoms: _268  and  _271
REMARK  104  A    between atoms: _271  and  _272
REMARK  105  A    between atoms: _274  and  _276
REMARK  106  A    between atoms: _276  and  _277
REMARK  107  A    between atoms: _276  and  _279
REMARK  108  A    between atoms: _279  and  _280
REMARK  109  A    between atoms: _283  and  _285
REMARK  110  A    between atoms: _285  and  _286
REMARK  111  A    between atoms: _285  and  _288
REMARK  112  A    between atoms: _288  and  _289
REMARK  113  A    between atoms: _292  and  _294
REMARK  114  A    between atoms: _294  and  _295
REMARK  115  A    between atoms: _294  and  _297
REMARK  116  A    between atoms: _297  and  _298
REMARK  117  A    between atoms: _304  and  _306
REMARK  118  A    between atoms: _306  and  _307
REMARK  119  A    between atoms: _306  and  _309
REMARK  120  A    between atoms: _309  and  _310
REMARK                            x       y       z     vdW  Elec       q    Type
REMARK                         _______ _______ _______ _____ _____    ______ ____
ROOT
ATOM      1  O   HOH     1       4.816  40.516  -7.998  0.00  0.00    +0.000 OA
ENDROOT
TORSDOF 0
