REMARK  Name = ../refined-set-2016/3mof/3mof_pocket.pdb
REMARK  135 active torsions:
REMARK  status: ('A' for Active; 'I' for Inactive)
REMARK    1  A    between atoms: _1  and  _3
REMARK    2  A    between atoms: _3  and  _4
REMARK    3  A    between atoms: _7  and  _9
REMARK    4  A    between atoms: _9  and  _10
REMARK    5  A    between atoms: _9  and  _12
REMARK    6  A    between atoms: _12  and  _13
REMARK    7  A    between atoms: _13  and  _14
REMARK    8  A    between atoms: _14  and  _15
REMARK    9  A    between atoms: _24  and  _26
REMARK   10  A    between atoms: _26  and  _27
REMARK   11  A    between atoms: _26  and  _29
REMARK   12  A    between atoms: _29  and  _30
REMARK   13  A    between atoms: _30  and  _31
REMARK   14  A    between atoms: _34  and  _36
REMARK   15  A    between atoms: _36  and  _37
REMARK   16  A    between atoms: _36  and  _39
REMARK   17  A    between atoms: _39  and  _40
REMARK   18  A    between atoms: _45  and  _46
REMARK   19  A    between atoms: _48  and  _50
REMARK   20  A    between atoms: _50  and  _51
REMARK   21  A    between atoms: _53  and  _55
REMARK   22  A    between atoms: _55  and  _56
REMARK   23  A    between atoms: _58  and  _60
REMARK   24  A    between atoms: _60  and  _61
REMARK   25  A    between atoms: _60  and  _63
REMARK   26  A    between atoms: _63  and  _64
REMARK   27  A    between atoms: _69  and  _71
REMARK   28  A    between atoms: _71  and  _72
REMARK   29  A    between atoms: _71  and  _74
REMARK   30  A    between atoms: _74  and  _75
REMARK   31  A    between atoms: _75  and  _76
REMARK   32  A    between atoms: _76  and  _77
REMARK   33  A    between atoms: _77  and  _78
REMARK   34  A    between atoms: _82  and  _84
REMARK   35  A    between atoms: _84  and  _85
REMARK   36  A    between atoms: _84  and  _87
REMARK   37  A    between atoms: _87  and  _88
REMARK   38  A    between atoms: _88  and  _89
REMARK   39  A    between atoms: _89  and  _90
REMARK   40  A    between atoms: _90  and  _91
REMARK   41  A    between atoms: _95  and  _97
REMARK   42  A    between atoms: _97  and  _98
REMARK   43  A    between atoms: _97  and  _100
REMARK   44  A    between atoms: _100  and  _101
REMARK   45  A    between atoms: _104  and  _106
REMARK   46  A    between atoms: _106  and  _107
REMARK   47  A    between atoms: _106  and  _109
REMARK   48  A    between atoms: _109  and  _110
REMARK   49  A    between atoms: _110  and  _111
REMARK   50  A    between atoms: _111  and  _112
REMARK   51  A    between atoms: _121  and  _123
REMARK   52  A    between atoms: _123  and  _124
REMARK   53  A    between atoms: _123  and  _126
REMARK   54  A    between atoms: _126  and  _127
REMARK   55  A    between atoms: _131  and  MN_336
REMARK   56  A    between atoms: _132  and  _134
REMARK   57  A    between atoms: _134  and  _135
REMARK   58  A    between atoms: _134  and  _137
REMARK   59  A    between atoms: _137  and  _138
REMARK   60  A    between atoms: _145  and  _146
REMARK   61  A    between atoms: _151  and  _153
REMARK   62  A    between atoms: _153  and  _154
REMARK   63  A    between atoms: _153  and  _156
REMARK   64  A    between atoms: _156  and  _157
REMARK   65  A    between atoms: _159  and  _161
REMARK   66  A    between atoms: _161  and  _162
REMARK   67  A    between atoms: _165  and  _167
REMARK   68  A    between atoms: _167  and  _168
REMARK   69  A    between atoms: _167  and  _170
REMARK   70  A    between atoms: _172  and  _174
REMARK   71  A    between atoms: _174  and  _175
REMARK   72  A    between atoms: _174  and  _177
REMARK   73  A    between atoms: _177  and  _178
REMARK   74  A    between atoms: _178  and  _179
REMARK   75  A    between atoms: _179  and  _180
REMARK   76  A    between atoms: _180  and  _181
REMARK   77  A    between atoms: _185  and  _187
REMARK   78  A    between atoms: _187  and  _188
REMARK   79  A    between atoms: _187  and  _190
REMARK   80  A    between atoms: _190  and  _191
REMARK   81  A    between atoms: _194  and  _196
REMARK   82  A    between atoms: _196  and  _197
REMARK   83  A    between atoms: _196  and  _199
REMARK   84  A    between atoms: _199  and  _200
REMARK   85  A    between atoms: _203  and  _205
REMARK   86  A    between atoms: _205  and  _206
REMARK   87  A    between atoms: _205  and  _208
REMARK   88  A    between atoms: _208  and  _209
REMARK   89  A    between atoms: _209  and  _210
REMARK   90  A    between atoms: _210  and  MN_336
REMARK   91  A    between atoms: _212  and  _214
REMARK   92  A    between atoms: _214  and  _215
REMARK   93  A    between atoms: _214  and  _217
REMARK   94  A    between atoms: _217  and  _218
REMARK   95  A    between atoms: _221  and  _223
REMARK   96  A    between atoms: _223  and  _224
REMARK   97  A    between atoms: _223  and  _226
REMARK   98  A    between atoms: _226  and  _227
REMARK   99  A    between atoms: _227  and  _228
REMARK  100  A    between atoms: _231  and  _233
REMARK  101  A    between atoms: _233  and  _234
REMARK  102  A    between atoms: _233  and  _236
REMARK  103  A    between atoms: _236  and  _237
REMARK  104  A    between atoms: _243  and  _245
REMARK  105  A    between atoms: _245  and  _246
REMARK  106  A    between atoms: _248  and  _250
REMARK  107  A    between atoms: _250  and  _251
REMARK  108  A    between atoms: _250  and  _253
REMARK  109  A    between atoms: _256  and  _258
REMARK  110  A    between atoms: _258  and  _259
REMARK  111  A    between atoms: _258  and  _261
REMARK  112  A    between atoms: _261  and  _262
REMARK  113  A    between atoms: _267  and  _269
REMARK  114  A    between atoms: _269  and  _270
REMARK  115  A    between atoms: _269  and  _272
REMARK  116  A    between atoms: _272  and  _273
REMARK  117  A    between atoms: _273  and  _274
REMARK  118  A    between atoms: _274  and  _275
REMARK  119  A    between atoms: _284  and  _286
REMARK  120  A    between atoms: _286  and  _287
REMARK  121  A    between atoms: _286  and  _289
REMARK  122  A    between atoms: _289  and  _290
REMARK  123  A    between atoms: _293  and  _295
REMARK  124  A    between atoms: _295  and  _296
REMARK  125  A    between atoms: _299  and  _301
REMARK  126  A    between atoms: _301  and  _302
REMARK  127  A    between atoms: _304  and  _306
REMARK  128  A    between atoms: _306  and  _307
REMARK  129  A    between atoms: _310  and  _312
REMARK  130  A    between atoms: _312  and  _313
REMARK  131  A    between atoms: _317  and  _318
REMARK  132  A    between atoms: _323  and  _325
REMARK  133  A    between atoms: _325  and  _326
REMARK  134  A    between atoms: _325  and  _328
REMARK  135  A    between atoms: _328  and  _329
REMARK                            x       y       z     vdW  Elec       q    Type
REMARK                         _______ _______ _______ _____ _____    ______ ____
ROOT
ATOM      1  CB  ARG A   2       9.255   3.747  39.253  0.00  0.00    +0.031 C 
ENDROOT
BRANCH   1   2
ATOM      2  CA  ARG A   2       8.878   5.066  38.585  0.00  0.00    +0.137 C 
BRANCH   2   4
ATOM      3  C   ALA A   1       7.838   7.185  39.130  0.00  0.00    +0.238 C 
ATOM      4  N   ARG A   2       8.199   5.961  39.516  0.00  0.00    -0.298 N 
ATOM      5  H   ARG A   2       7.996   5.643  40.485  0.00  0.00    +0.150 HD
ATOM      6  O   ALA A   1       8.236   7.720  38.082  0.00  0.00    -0.274 OA
BRANCH   3   7
ATOM      7  CA  ALA A   1       6.902   7.934  40.068  0.00  0.00    +0.145 C 
ATOM      8  CB  ALA A   1       5.555   7.189  40.204  0.00  0.00    +0.028 C 
BRANCH   7   9
ATOM      9  N   ALA A   1       6.687   9.291  39.580  0.00  0.00    -0.238 NA
ATOM     10  H   ALA A   1       6.937   9.521  38.597  0.00  0.00    +0.142 HD
ENDBRANCH   7   9
ENDBRANCH   3   7
ENDBRANCH   2   4
BRANCH   2  11
ATOM     11  C   ARG A   2       8.033   4.766  37.365  0.00  0.00    +0.227 C 
ATOM     12  O   ARG A   2       6.794   4.742  37.427  0.00  0.00    -0.286 OA
ENDBRANCH   2  11
ENDBRANCH   1   2
BRANCH   1  13
ATOM     13  CG  ARG A   2      10.494   3.873  40.152  0.00  0.00    +0.045 C 
BRANCH  13  14
ATOM     14  CD  ARG A   2      10.852   2.558  40.854  0.00  0.00    +0.174 C 
BRANCH  14  15
ATOM     15  NE  ARG A   2       9.787   2.054  41.711  0.00  0.00    -0.265 N 
ATOM     16  HE  ARG A   2       9.752   2.399  42.691  0.00  0.00    +0.259 HD
ATOM     17  CZ  ARG A   2       8.855   1.183  41.329  0.00  0.00    +0.342 C 
ATOM     18  NH2 ARG A   2       7.933   0.808  42.204  0.00  0.00    -0.292 N 
ATOM     19 HH21 ARG A   2       7.946   1.193  43.170  0.00  0.00    +0.255 HD
ATOM     20 HH22 ARG A   2       7.197   0.129  41.925  0.00  0.00    +0.255 HD
ATOM     21  NH1 ARG A   2       8.844   0.671  40.078  0.00  0.00    -0.292 N 
ATOM     22 HH11 ARG A   2       8.107  -0.008  39.801  0.00  0.00    +0.255 HD
ATOM     23 HH12 ARG A   2       9.573   0.956  39.393  0.00  0.00    +0.255 HD
ENDBRANCH  14  15
ENDBRANCH  13  14
ENDBRANCH   1  13
TORSDOF 8
REMARK  Name = ../refined-set-2016/3mof/3mof_pocket.pdb
REMARK  135 active torsions:
REMARK  status: ('A' for Active; 'I' for Inactive)
REMARK    1  A    between atoms: _1  and  _3
REMARK    2  A    between atoms: _3  and  _4
REMARK    3  A    between atoms: _7  and  _9
REMARK    4  A    between atoms: _9  and  _10
REMARK    5  A    between atoms: _9  and  _12
REMARK    6  A    between atoms: _12  and  _13
REMARK    7  A    between atoms: _13  and  _14
REMARK    8  A    between atoms: _14  and  _15
REMARK    9  A    between atoms: _24  and  _26
REMARK   10  A    between atoms: _26  and  _27
REMARK   11  A    between atoms: _26  and  _29
REMARK   12  A    between atoms: _29  and  _30
REMARK   13  A    between atoms: _30  and  _31
REMARK   14  A    between atoms: _34  and  _36
REMARK   15  A    between atoms: _36  and  _37
REMARK   16  A    between atoms: _36  and  _39
REMARK   17  A    between atoms: _39  and  _40
REMARK   18  A    between atoms: _45  and  _46
REMARK   19  A    between atoms: _48  and  _50
REMARK   20  A    between atoms: _50  and  _51
REMARK   21  A    between atoms: _53  and  _55
REMARK   22  A    between atoms: _55  and  _56
REMARK   23  A    between atoms: _58  and  _60
REMARK   24  A    between atoms: _60  and  _61
REMARK   25  A    between atoms: _60  and  _63
REMARK   26  A    between atoms: _63  and  _64
REMARK   27  A    between atoms: _69  and  _71
REMARK   28  A    between atoms: _71  and  _72
REMARK   29  A    between atoms: _71  and  _74
REMARK   30  A    between atoms: _74  and  _75
REMARK   31  A    between atoms: _75  and  _76
REMARK   32  A    between atoms: _76  and  _77
REMARK   33  A    between atoms: _77  and  _78
REMARK   34  A    between atoms: _82  and  _84
REMARK   35  A    between atoms: _84  and  _85
REMARK   36  A    between atoms: _84  and  _87
REMARK   37  A    between atoms: _87  and  _88
REMARK   38  A    between atoms: _88  and  _89
REMARK   39  A    between atoms: _89  and  _90
REMARK   40  A    between atoms: _90  and  _91
REMARK   41  A    between atoms: _95  and  _97
REMARK   42  A    between atoms: _97  and  _98
REMARK   43  A    between atoms: _97  and  _100
REMARK   44  A    between atoms: _100  and  _101
REMARK   45  A    between atoms: _104  and  _106
REMARK   46  A    between atoms: _106  and  _107
REMARK   47  A    between atoms: _106  and  _109
REMARK   48  A    between atoms: _109  and  _110
REMARK   49  A    between atoms: _110  and  _111
REMARK   50  A    between atoms: _111  and  _112
REMARK   51  A    between atoms: _121  and  _123
REMARK   52  A    between atoms: _123  and  _124
REMARK   53  A    between atoms: _123  and  _126
REMARK   54  A    between atoms: _126  and  _127
REMARK   55  A    between atoms: _131  and  MN_336
REMARK   56  A    between atoms: _132  and  _134
REMARK   57  A    between atoms: _134  and  _135
REMARK   58  A    between atoms: _134  and  _137
REMARK   59  A    between atoms: _137  and  _138
REMARK   60  A    between atoms: _145  and  _146
REMARK   61  A    between atoms: _151  and  _153
REMARK   62  A    between atoms: _153  and  _154
REMARK   63  A    between atoms: _153  and  _156
REMARK   64  A    between atoms: _156  and  _157
REMARK   65  A    between atoms: _159  and  _161
REMARK   66  A    between atoms: _161  and  _162
REMARK   67  A    between atoms: _165  and  _167
REMARK   68  A    between atoms: _167  and  _168
REMARK   69  A    between atoms: _167  and  _170
REMARK   70  A    between atoms: _172  and  _174
REMARK   71  A    between atoms: _174  and  _175
REMARK   72  A    between atoms: _174  and  _177
REMARK   73  A    between atoms: _177  and  _178
REMARK   74  A    between atoms: _178  and  _179
REMARK   75  A    between atoms: _179  and  _180
REMARK   76  A    between atoms: _180  and  _181
REMARK   77  A    between atoms: _185  and  _187
REMARK   78  A    between atoms: _187  and  _188
REMARK   79  A    between atoms: _187  and  _190
REMARK   80  A    between atoms: _190  and  _191
REMARK   81  A    between atoms: _194  and  _196
REMARK   82  A    between atoms: _196  and  _197
REMARK   83  A    between atoms: _196  and  _199
REMARK   84  A    between atoms: _199  and  _200
REMARK   85  A    between atoms: _203  and  _205
REMARK   86  A    between atoms: _205  and  _206
REMARK   87  A    between atoms: _205  and  _208
REMARK   88  A    between atoms: _208  and  _209
REMARK   89  A    between atoms: _209  and  _210
REMARK   90  A    between atoms: _210  and  MN_336
REMARK   91  A    between atoms: _212  and  _214
REMARK   92  A    between atoms: _214  and  _215
REMARK   93  A    between atoms: _214  and  _217
REMARK   94  A    between atoms: _217  and  _218
REMARK   95  A    between atoms: _221  and  _223
REMARK   96  A    between atoms: _223  and  _224
REMARK   97  A    between atoms: _223  and  _226
REMARK   98  A    between atoms: _226  and  _227
REMARK   99  A    between atoms: _227  and  _228
REMARK  100  A    between atoms: _231  and  _233
REMARK  101  A    between atoms: _233  and  _234
REMARK  102  A    between atoms: _233  and  _236
REMARK  103  A    between atoms: _236  and  _237
REMARK  104  A    between atoms: _243  and  _245
REMARK  105  A    between atoms: _245  and  _246
REMARK  106  A    between atoms: _248  and  _250
REMARK  107  A    between atoms: _250  and  _251
REMARK  108  A    between atoms: _250  and  _253
REMARK  109  A    between atoms: _256  and  _258
REMARK  110  A    between atoms: _258  and  _259
REMARK  111  A    between atoms: _258  and  _261
REMARK  112  A    between atoms: _261  and  _262
REMARK  113  A    between atoms: _267  and  _269
REMARK  114  A    between atoms: _269  and  _270
REMARK  115  A    between atoms: _269  and  _272
REMARK  116  A    between atoms: _272  and  _273
REMARK  117  A    between atoms: _273  and  _274
REMARK  118  A    between atoms: _274  and  _275
REMARK  119  A    between atoms: _284  and  _286
REMARK  120  A    between atoms: _286  and  _287
REMARK  121  A    between atoms: _286  and  _289
REMARK  122  A    between atoms: _289  and  _290
REMARK  123  A    between atoms: _293  and  _295
REMARK  124  A    between atoms: _295  and  _296
REMARK  125  A    between atoms: _299  and  _301
REMARK  126  A    between atoms: _301  and  _302
REMARK  127  A    between atoms: _304  and  _306
REMARK  128  A    between atoms: _306  and  _307
REMARK  129  A    between atoms: _310  and  _312
REMARK  130  A    between atoms: _312  and  _313
REMARK  131  A    between atoms: _317  and  _318
REMARK  132  A    between atoms: _323  and  _325
REMARK  133  A    between atoms: _325  and  _326
REMARK  134  A    between atoms: _325  and  _328
REMARK  135  A    between atoms: _328  and  _329
REMARK                            x       y       z     vdW  Elec       q    Type
REMARK                         _______ _______ _______ _____ _____    ______ ____
ROOT
ATOM      1  CA  GLU A   1       8.393   0.322  34.671  0.00  0.00    +0.134 C 
ENDROOT
BRANCH   1   2
ATOM      2  N   GLU A   1       7.825   1.650  34.875  0.00  0.00    -0.239 NA
ATOM      3  H   GLU A   1       6.848   1.747  35.218  0.00  0.00    +0.142 HD
ENDBRANCH   1   2
BRANCH   1   4
ATOM      4  C   GLU A   1       8.602   0.026  33.187  0.00  0.00    +0.224 C 
ATOM      5  O   GLU A   1       9.567  -0.653  32.823  0.00  0.00    -0.287 OA
ENDBRANCH   1   4
BRANCH   1   6
ATOM      6  CB  GLU A   1       7.554  -0.757  35.369  0.00  0.00    +0.037 C 
BRANCH   6   7
ATOM      7  CG  GLU A   1       7.895  -0.801  36.889  0.00  0.00    +0.116 C 
BRANCH   7   8
ATOM      8  CD  GLU A   1       6.784  -1.370  37.785  0.00  0.00    +0.365 C 
ATOM      9  OE2 GLU A   1       6.737  -1.015  39.008  0.00  0.00    -0.246 OA
ATOM     10  OE1 GLU A   1       5.992  -2.188  37.278  0.00  0.00    -0.246 OA
ENDBRANCH   7   8
ENDBRANCH   6   7
ENDBRANCH   1   6
TORSDOF 5
REMARK  Name = ../refined-set-2016/3mof/3mof_pocket.pdb
REMARK  135 active torsions:
REMARK  status: ('A' for Active; 'I' for Inactive)
REMARK    1  A    between atoms: _1  and  _3
REMARK    2  A    between atoms: _3  and  _4
REMARK    3  A    between atoms: _7  and  _9
REMARK    4  A    between atoms: _9  and  _10
REMARK    5  A    between atoms: _9  and  _12
REMARK    6  A    between atoms: _12  and  _13
REMARK    7  A    between atoms: _13  and  _14
REMARK    8  A    between atoms: _14  and  _15
REMARK    9  A    between atoms: _24  and  _26
REMARK   10  A    between atoms: _26  and  _27
REMARK   11  A    between atoms: _26  and  _29
REMARK   12  A    between atoms: _29  and  _30
REMARK   13  A    between atoms: _30  and  _31
REMARK   14  A    between atoms: _34  and  _36
REMARK   15  A    between atoms: _36  and  _37
REMARK   16  A    between atoms: _36  and  _39
REMARK   17  A    between atoms: _39  and  _40
REMARK   18  A    between atoms: _45  and  _46
REMARK   19  A    between atoms: _48  and  _50
REMARK   20  A    between atoms: _50  and  _51
REMARK   21  A    between atoms: _53  and  _55
REMARK   22  A    between atoms: _55  and  _56
REMARK   23  A    between atoms: _58  and  _60
REMARK   24  A    between atoms: _60  and  _61
REMARK   25  A    between atoms: _60  and  _63
REMARK   26  A    between atoms: _63  and  _64
REMARK   27  A    between atoms: _69  and  _71
REMARK   28  A    between atoms: _71  and  _72
REMARK   29  A    between atoms: _71  and  _74
REMARK   30  A    between atoms: _74  and  _75
REMARK   31  A    between atoms: _75  and  _76
REMARK   32  A    between atoms: _76  and  _77
REMARK   33  A    between atoms: _77  and  _78
REMARK   34  A    between atoms: _82  and  _84
REMARK   35  A    between atoms: _84  and  _85
REMARK   36  A    between atoms: _84  and  _87
REMARK   37  A    between atoms: _87  and  _88
REMARK   38  A    between atoms: _88  and  _89
REMARK   39  A    between atoms: _89  and  _90
REMARK   40  A    between atoms: _90  and  _91
REMARK   41  A    between atoms: _95  and  _97
REMARK   42  A    between atoms: _97  and  _98
REMARK   43  A    between atoms: _97  and  _100
REMARK   44  A    between atoms: _100  and  _101
REMARK   45  A    between atoms: _104  and  _106
REMARK   46  A    between atoms: _106  and  _107
REMARK   47  A    between atoms: _106  and  _109
REMARK   48  A    between atoms: _109  and  _110
REMARK   49  A    between atoms: _110  and  _111
REMARK   50  A    between atoms: _111  and  _112
REMARK   51  A    between atoms: _121  and  _123
REMARK   52  A    between atoms: _123  and  _124
REMARK   53  A    between atoms: _123  and  _126
REMARK   54  A    between atoms: _126  and  _127
REMARK   55  A    between atoms: _131  and  MN_336
REMARK   56  A    between atoms: _132  and  _134
REMARK   57  A    between atoms: _134  and  _135
REMARK   58  A    between atoms: _134  and  _137
REMARK   59  A    between atoms: _137  and  _138
REMARK   60  A    between atoms: _145  and  _146
REMARK   61  A    between atoms: _151  and  _153
REMARK   62  A    between atoms: _153  and  _154
REMARK   63  A    between atoms: _153  and  _156
REMARK   64  A    between atoms: _156  and  _157
REMARK   65  A    between atoms: _159  and  _161
REMARK   66  A    between atoms: _161  and  _162
REMARK   67  A    between atoms: _165  and  _167
REMARK   68  A    between atoms: _167  and  _168
REMARK   69  A    between atoms: _167  and  _170
REMARK   70  A    between atoms: _172  and  _174
REMARK   71  A    between atoms: _174  and  _175
REMARK   72  A    between atoms: _174  and  _177
REMARK   73  A    between atoms: _177  and  _178
REMARK   74  A    between atoms: _178  and  _179
REMARK   75  A    between atoms: _179  and  _180
REMARK   76  A    between atoms: _180  and  _181
REMARK   77  A    between atoms: _185  and  _187
REMARK   78  A    between atoms: _187  and  _188
REMARK   79  A    between atoms: _187  and  _190
REMARK   80  A    between atoms: _190  and  _191
REMARK   81  A    between atoms: _194  and  _196
REMARK   82  A    between atoms: _196  and  _197
REMARK   83  A    between atoms: _196  and  _199
REMARK   84  A    between atoms: _199  and  _200
REMARK   85  A    between atoms: _203  and  _205
REMARK   86  A    between atoms: _205  and  _206
REMARK   87  A    between atoms: _205  and  _208
REMARK   88  A    between atoms: _208  and  _209
REMARK   89  A    between atoms: _209  and  _210
REMARK   90  A    between atoms: _210  and  MN_336
REMARK   91  A    between atoms: _212  and  _214
REMARK   92  A    between atoms: _214  and  _215
REMARK   93  A    between atoms: _214  and  _217
REMARK   94  A    between atoms: _217  and  _218
REMARK   95  A    between atoms: _221  and  _223
REMARK   96  A    between atoms: _223  and  _224
REMARK   97  A    between atoms: _223  and  _226
REMARK   98  A    between atoms: _226  and  _227
REMARK   99  A    between atoms: _227  and  _228
REMARK  100  A    between atoms: _231  and  _233
REMARK  101  A    between atoms: _233  and  _234
REMARK  102  A    between atoms: _233  and  _236
REMARK  103  A    between atoms: _236  and  _237
REMARK  104  A    between atoms: _243  and  _245
REMARK  105  A    between atoms: _245  and  _246
REMARK  106  A    between atoms: _248  and  _250
REMARK  107  A    between atoms: _250  and  _251
REMARK  108  A    between atoms: _250  and  _253
REMARK  109  A    between atoms: _256  and  _258
REMARK  110  A    between atoms: _258  and  _259
REMARK  111  A    between atoms: _258  and  _261
REMARK  112  A    between atoms: _261  and  _262
REMARK  113  A    between atoms: _267  and  _269
REMARK  114  A    between atoms: _269  and  _270
REMARK  115  A    between atoms: _269  and  _272
REMARK  116  A    between atoms: _272  and  _273
REMARK  117  A    between atoms: _273  and  _274
REMARK  118  A    between atoms: _274  and  _275
REMARK  119  A    between atoms: _284  and  _286
REMARK  120  A    between atoms: _286  and  _287
REMARK  121  A    between atoms: _286  and  _289
REMARK  122  A    between atoms: _289  and  _290
REMARK  123  A    between atoms: _293  and  _295
REMARK  124  A    between atoms: _295  and  _296
REMARK  125  A    between atoms: _299  and  _301
REMARK  126  A    between atoms: _301  and  _302
REMARK  127  A    between atoms: _304  and  _306
REMARK  128  A    between atoms: _306  and  _307
REMARK  129  A    between atoms: _310  and  _312
REMARK  130  A    between atoms: _312  and  _313
REMARK  131  A    between atoms: _317  and  _318
REMARK  132  A    between atoms: _323  and  _325
REMARK  133  A    between atoms: _325  and  _326
REMARK  134  A    between atoms: _325  and  _328
REMARK  135  A    between atoms: _328  and  _329
REMARK                            x       y       z     vdW  Elec       q    Type
REMARK                         _______ _______ _______ _____ _____    ______ ____
ROOT
ATOM      1  C   GLY A   2      14.032   8.281  42.495  0.00  0.00    +0.243 C 
ATOM      2  N   GLY A   3      13.093   7.366  42.326  0.00  0.00    -0.295 N 
ATOM      3  H   GLY A   3      12.105   7.605  42.545  0.00  0.00    +0.150 HD
ATOM      4  O   GLY A   2      15.201   8.062  42.267  0.00  0.00    -0.273 OA
ENDROOT
BRANCH   1   5
ATOM      5  CA  GLY A   2      13.591   9.632  43.028  0.00  0.00    +0.176 C 
BRANCH   5   7
ATOM      6  C   TYR A   1      12.752  10.561  40.883  0.00  0.00    +0.239 C 
ATOM      7  N   GLY A   2      12.824  10.560  42.201  0.00  0.00    -0.296 N 
ATOM      8  H   GLY A   2      12.281  11.293  42.700  0.00  0.00    +0.150 HD
ATOM      9  O   TYR A   1      13.307   9.745  40.147  0.00  0.00    -0.274 OA
BRANCH   6  10
ATOM     10  CA  TYR A   1      11.858  11.611  40.297  0.00  0.00    +0.149 C 
BRANCH  10  11
ATOM     11  N   TYR A   1      12.496  12.309  39.168  0.00  0.00    -0.238 NA
ATOM     12  H   TYR A   1      12.073  12.217  38.222  0.00  0.00    +0.142 HD
ENDBRANCH  10  11
BRANCH  10  13
ATOM     13  CB  TYR A   1      10.543  10.905  39.917  0.00  0.00    +0.053 C 
BRANCH  13  14
ATOM     14  CG  TYR A   1      10.114   9.901  40.987  0.00  0.00    -0.020 A 
ATOM     15  CD2 TYR A   1       9.528  10.335  42.176  0.00  0.00    -0.001 A 
ATOM     16  CE2 TYR A   1       9.166   9.438  43.176  0.00  0.00    +0.036 A 
ATOM     17  CZ  TYR A   1       9.402   8.067  43.007  0.00  0.00    +0.134 A 
ATOM     18  CE1 TYR A   1       9.986   7.594  41.836  0.00  0.00    +0.036 A 
ATOM     19  CD1 TYR A   1      10.352   8.518  40.831  0.00  0.00    -0.001 A 
BRANCH  17  20
ATOM     20  OH  TYR A   1       9.023   7.193  44.006  0.00  0.00    -0.506 OA
ATOM     21  HH  TYR A   1       9.816   6.694  44.325  0.00  0.00    +0.292 HD
ENDBRANCH  17  20
ENDBRANCH  13  14
ENDBRANCH  10  13
ENDBRANCH   6  10
ENDBRANCH   5   7
ENDBRANCH   1   5
BRANCH   2  22
ATOM     22  CA  GLY A   3      13.412   6.034  41.841  0.00  0.00    +0.176 C 
BRANCH  22  23
ATOM     23  C   GLY A   3      14.137   5.989  40.499  0.00  0.00    +0.243 C 
ATOM     24  O   GLY A   3      14.899   5.055  40.253  0.00  0.00    -0.273 OA
ATOM     25  N   ASN A   4      13.931   7.005  39.660  0.00  0.00    -0.298 N 
ATOM     26  H   ASN A   4      13.281   7.762  39.953  0.00  0.00    +0.150 HD
BRANCH  25  27
ATOM     27  CA  ASN A   4      14.565   7.110  38.363  0.00  0.00    +0.146 C 
BRANCH  27  28
ATOM     28  C   ASN A   4      15.904   7.818  38.365  0.00  0.00    +0.227 C 
ATOM     29  O   ASN A   4      16.676   7.615  37.439  0.00  0.00    -0.286 OA
ENDBRANCH  27  28
BRANCH  27  30
ATOM     30  CB  ASN A   4      13.644   7.800  37.342  0.00  0.00    +0.112 C 
BRANCH  30  31
ATOM     31  CG  ASN A   4      12.301   7.104  37.218  0.00  0.00    +0.222 C 
ATOM     32  OD1 ASN A   4      12.211   5.879  37.374  0.00  0.00    -0.275 OA
ATOM     33  ND2 ASN A   4      11.237   7.888  36.978  0.00  0.00    -0.329 N 
ATOM     34 HD21 ASN A   4      10.287   7.470  36.916  0.00  0.00    +0.145 HD
ATOM     35 HD22 ASN A   4      11.364   8.913  36.854  0.00  0.00    +0.145 HD
ENDBRANCH  30  31
ENDBRANCH  27  30
ENDBRANCH  25  27
ENDBRANCH  22  23
ENDBRANCH   2  22
TORSDOF 13
REMARK  Name = ../refined-set-2016/3mof/3mof_pocket.pdb
REMARK  135 active torsions:
REMARK  status: ('A' for Active; 'I' for Inactive)
REMARK    1  A    between atoms: _1  and  _3
REMARK    2  A    between atoms: _3  and  _4
REMARK    3  A    between atoms: _7  and  _9
REMARK    4  A    between atoms: _9  and  _10
REMARK    5  A    between atoms: _9  and  _12
REMARK    6  A    between atoms: _12  and  _13
REMARK    7  A    between atoms: _13  and  _14
REMARK    8  A    between atoms: _14  and  _15
REMARK    9  A    between atoms: _24  and  _26
REMARK   10  A    between atoms: _26  and  _27
REMARK   11  A    between atoms: _26  and  _29
REMARK   12  A    between atoms: _29  and  _30
REMARK   13  A    between atoms: _30  and  _31
REMARK   14  A    between atoms: _34  and  _36
REMARK   15  A    between atoms: _36  and  _37
REMARK   16  A    between atoms: _36  and  _39
REMARK   17  A    between atoms: _39  and  _40
REMARK   18  A    between atoms: _45  and  _46
REMARK   19  A    between atoms: _48  and  _50
REMARK   20  A    between atoms: _50  and  _51
REMARK   21  A    between atoms: _53  and  _55
REMARK   22  A    between atoms: _55  and  _56
REMARK   23  A    between atoms: _58  and  _60
REMARK   24  A    between atoms: _60  and  _61
REMARK   25  A    between atoms: _60  and  _63
REMARK   26  A    between atoms: _63  and  _64
REMARK   27  A    between atoms: _69  and  _71
REMARK   28  A    between atoms: _71  and  _72
REMARK   29  A    between atoms: _71  and  _74
REMARK   30  A    between atoms: _74  and  _75
REMARK   31  A    between atoms: _75  and  _76
REMARK   32  A    between atoms: _76  and  _77
REMARK   33  A    between atoms: _77  and  _78
REMARK   34  A    between atoms: _82  and  _84
REMARK   35  A    between atoms: _84  and  _85
REMARK   36  A    between atoms: _84  and  _87
REMARK   37  A    between atoms: _87  and  _88
REMARK   38  A    between atoms: _88  and  _89
REMARK   39  A    between atoms: _89  and  _90
REMARK   40  A    between atoms: _90  and  _91
REMARK   41  A    between atoms: _95  and  _97
REMARK   42  A    between atoms: _97  and  _98
REMARK   43  A    between atoms: _97  and  _100
REMARK   44  A    between atoms: _100  and  _101
REMARK   45  A    between atoms: _104  and  _106
REMARK   46  A    between atoms: _106  and  _107
REMARK   47  A    between atoms: _106  and  _109
REMARK   48  A    between atoms: _109  and  _110
REMARK   49  A    between atoms: _110  and  _111
REMARK   50  A    between atoms: _111  and  _112
REMARK   51  A    between atoms: _121  and  _123
REMARK   52  A    between atoms: _123  and  _124
REMARK   53  A    between atoms: _123  and  _126
REMARK   54  A    between atoms: _126  and  _127
REMARK   55  A    between atoms: _131  and  MN_336
REMARK   56  A    between atoms: _132  and  _134
REMARK   57  A    between atoms: _134  and  _135
REMARK   58  A    between atoms: _134  and  _137
REMARK   59  A    between atoms: _137  and  _138
REMARK   60  A    between atoms: _145  and  _146
REMARK   61  A    between atoms: _151  and  _153
REMARK   62  A    between atoms: _153  and  _154
REMARK   63  A    between atoms: _153  and  _156
REMARK   64  A    between atoms: _156  and  _157
REMARK   65  A    between atoms: _159  and  _161
REMARK   66  A    between atoms: _161  and  _162
REMARK   67  A    between atoms: _165  and  _167
REMARK   68  A    between atoms: _167  and  _168
REMARK   69  A    between atoms: _167  and  _170
REMARK   70  A    between atoms: _172  and  _174
REMARK   71  A    between atoms: _174  and  _175
REMARK   72  A    between atoms: _174  and  _177
REMARK   73  A    between atoms: _177  and  _178
REMARK   74  A    between atoms: _178  and  _179
REMARK   75  A    between atoms: _179  and  _180
REMARK   76  A    between atoms: _180  and  _181
REMARK   77  A    between atoms: _185  and  _187
REMARK   78  A    between atoms: _187  and  _188
REMARK   79  A    between atoms: _187  and  _190
REMARK   80  A    between atoms: _190  and  _191
REMARK   81  A    between atoms: _194  and  _196
REMARK   82  A    between atoms: _196  and  _197
REMARK   83  A    between atoms: _196  and  _199
REMARK   84  A    between atoms: _199  and  _200
REMARK   85  A    between atoms: _203  and  _205
REMARK   86  A    between atoms: _205  and  _206
REMARK   87  A    between atoms: _205  and  _208
REMARK   88  A    between atoms: _208  and  _209
REMARK   89  A    between atoms: _209  and  _210
REMARK   90  A    between atoms: _210  and  MN_336
REMARK   91  A    between atoms: _212  and  _214
REMARK   92  A    between atoms: _214  and  _215
REMARK   93  A    between atoms: _214  and  _217
REMARK   94  A    between atoms: _217  and  _218
REMARK   95  A    between atoms: _221  and  _223
REMARK   96  A    between atoms: _223  and  _224
REMARK   97  A    between atoms: _223  and  _226
REMARK   98  A    between atoms: _226  and  _227
REMARK   99  A    between atoms: _227  and  _228
REMARK  100  A    between atoms: _231  and  _233
REMARK  101  A    between atoms: _233  and  _234
REMARK  102  A    between atoms: _233  and  _236
REMARK  103  A    between atoms: _236  and  _237
REMARK  104  A    between atoms: _243  and  _245
REMARK  105  A    between atoms: _245  and  _246
REMARK  106  A    between atoms: _248  and  _250
REMARK  107  A    between atoms: _250  and  _251
REMARK  108  A    between atoms: _250  and  _253
REMARK  109  A    between atoms: _256  and  _258
REMARK  110  A    between atoms: _258  and  _259
REMARK  111  A    between atoms: _258  and  _261
REMARK  112  A    between atoms: _261  and  _262
REMARK  113  A    between atoms: _267  and  _269
REMARK  114  A    between atoms: _269  and  _270
REMARK  115  A    between atoms: _269  and  _272
REMARK  116  A    between atoms: _272  and  _273
REMARK  117  A    between atoms: _273  and  _274
REMARK  118  A    between atoms: _274  and  _275
REMARK  119  A    between atoms: _284  and  _286
REMARK  120  A    between atoms: _286  and  _287
REMARK  121  A    between atoms: _286  and  _289
REMARK  122  A    between atoms: _289  and  _290
REMARK  123  A    between atoms: _293  and  _295
REMARK  124  A    between atoms: _295  and  _296
REMARK  125  A    between atoms: _299  and  _301
REMARK  126  A    between atoms: _301  and  _302
REMARK  127  A    between atoms: _304  and  _306
REMARK  128  A    between atoms: _306  and  _307
REMARK  129  A    between atoms: _310  and  _312
REMARK  130  A    between atoms: _312  and  _313
REMARK  131  A    between atoms: _317  and  _318
REMARK  132  A    between atoms: _323  and  _325
REMARK  133  A    between atoms: _325  and  _326
REMARK  134  A    between atoms: _325  and  _328
REMARK  135  A    between atoms: _328  and  _329
REMARK                            x       y       z     vdW  Elec       q    Type
REMARK                         _______ _______ _______ _____ _____    ______ ____
ROOT
ATOM      1  C   LYS A   1      18.295   1.838  44.434  0.00  0.00    +0.238 C 
ATOM      2  O   LYS A   1      18.819   0.708  44.615  0.00  0.00    -0.274 OA
ATOM      3  N   LYS A   2      17.269   2.029  43.604  0.00  0.00    -0.298 N 
ATOM      4  H   LYS A   2      16.879   2.985  43.483  0.00  0.00    +0.150 HD
ENDROOT
BRANCH   1   5
ATOM      5  CA  LYS A   1      18.856   3.073  45.192  0.00  0.00    +0.145 C 
BRANCH   5   6
ATOM      6  N   LYS A   1      19.948   3.756  44.507  0.00  0.00    -0.238 NA
ATOM      7  H   LYS A   1      19.754   4.647  44.007  0.00  0.00    +0.142 HD
ENDBRANCH   5   6
BRANCH   5   8
ATOM      8  CB  LYS A   1      17.786   4.100  45.553  0.00  0.00    +0.026 C 
BRANCH   8   9
ATOM      9  CG  LYS A   1      16.550   3.552  46.277  0.00  0.00    -0.000 C 
BRANCH   9  10
ATOM     10  CD  LYS A   1      15.656   4.699  46.773  0.00  0.00    -0.024 C 
BRANCH  10  11
ATOM     11  CE  LYS A   1      14.464   4.177  47.599  0.00  0.00    -0.086 C 
BRANCH  11  12
ATOM     12  NZ  LYS A   1      14.944   3.578  48.904  0.00  0.00    +0.380 N 
ATOM     13  HZ1 LYS A   1      15.444   4.305  49.454  0.00  0.00    -0.089 HD
ATOM     14  HZ2 LYS A   1      14.127   3.232  49.446  0.00  0.00    -0.089 HD
ATOM     15  HZ3 LYS A   1      15.589   2.787  48.704  0.00  0.00    -0.089 HD
ENDBRANCH  11  12
ENDBRANCH  10  11
ENDBRANCH   9  10
ENDBRANCH   8   9
ENDBRANCH   5   8
ENDBRANCH   1   5
BRANCH   3  16
ATOM     16  CA  LYS A   2      16.681   0.907  42.857  0.00  0.00    +0.137 C 
BRANCH  16  17
ATOM     17  C   LYS A   2      17.638   0.411  41.768  0.00  0.00    +0.227 C 
ATOM     18  O   LYS A   2      17.844  -0.799  41.604  0.00  0.00    -0.286 OA
ENDBRANCH  16  17
BRANCH  16  19
ATOM     19  CB  LYS A   2      15.330   1.276  42.216  0.00  0.00    +0.028 C 
BRANCH  19  20
ATOM     20  CG  LYS A   2      14.230   1.734  43.204  0.00  0.00    -0.000 C 
BRANCH  20  21
ATOM     21  CD  LYS A   2      14.099   0.762  44.383  0.00  0.00    -0.024 C 
BRANCH  21  22
ATOM     22  CE  LYS A   2      12.782   1.028  45.141  0.00  0.00    -0.086 C 
BRANCH  22  23
ATOM     23  NZ  LYS A   2      12.606   0.138  46.349  0.00  0.00    +0.380 N 
ATOM     24  HZ1 LYS A   2      13.391   0.297  47.013  0.00  0.00    -0.089 HD
ATOM     25  HZ2 LYS A   2      11.704   0.364  46.816  0.00  0.00    -0.089 HD
ATOM     26  HZ3 LYS A   2      12.602  -0.857  46.047  0.00  0.00    -0.089 HD
ENDBRANCH  22  23
ENDBRANCH  21  22
ENDBRANCH  20  21
ENDBRANCH  19  20
ENDBRANCH  16  19
ENDBRANCH   3  16
TORSDOF 14
REMARK  Name = ../refined-set-2016/3mof/3mof_pocket.pdb
REMARK  135 active torsions:
REMARK  status: ('A' for Active; 'I' for Inactive)
REMARK    1  A    between atoms: _1  and  _3
REMARK    2  A    between atoms: _3  and  _4
REMARK    3  A    between atoms: _7  and  _9
REMARK    4  A    between atoms: _9  and  _10
REMARK    5  A    between atoms: _9  and  _12
REMARK    6  A    between atoms: _12  and  _13
REMARK    7  A    between atoms: _13  and  _14
REMARK    8  A    between atoms: _14  and  _15
REMARK    9  A    between atoms: _24  and  _26
REMARK   10  A    between atoms: _26  and  _27
REMARK   11  A    between atoms: _26  and  _29
REMARK   12  A    between atoms: _29  and  _30
REMARK   13  A    between atoms: _30  and  _31
REMARK   14  A    between atoms: _34  and  _36
REMARK   15  A    between atoms: _36  and  _37
REMARK   16  A    between atoms: _36  and  _39
REMARK   17  A    between atoms: _39  and  _40
REMARK   18  A    between atoms: _45  and  _46
REMARK   19  A    between atoms: _48  and  _50
REMARK   20  A    between atoms: _50  and  _51
REMARK   21  A    between atoms: _53  and  _55
REMARK   22  A    between atoms: _55  and  _56
REMARK   23  A    between atoms: _58  and  _60
REMARK   24  A    between atoms: _60  and  _61
REMARK   25  A    between atoms: _60  and  _63
REMARK   26  A    between atoms: _63  and  _64
REMARK   27  A    between atoms: _69  and  _71
REMARK   28  A    between atoms: _71  and  _72
REMARK   29  A    between atoms: _71  and  _74
REMARK   30  A    between atoms: _74  and  _75
REMARK   31  A    between atoms: _75  and  _76
REMARK   32  A    between atoms: _76  and  _77
REMARK   33  A    between atoms: _77  and  _78
REMARK   34  A    between atoms: _82  and  _84
REMARK   35  A    between atoms: _84  and  _85
REMARK   36  A    between atoms: _84  and  _87
REMARK   37  A    between atoms: _87  and  _88
REMARK   38  A    between atoms: _88  and  _89
REMARK   39  A    between atoms: _89  and  _90
REMARK   40  A    between atoms: _90  and  _91
REMARK   41  A    between atoms: _95  and  _97
REMARK   42  A    between atoms: _97  and  _98
REMARK   43  A    between atoms: _97  and  _100
REMARK   44  A    between atoms: _100  and  _101
REMARK   45  A    between atoms: _104  and  _106
REMARK   46  A    between atoms: _106  and  _107
REMARK   47  A    between atoms: _106  and  _109
REMARK   48  A    between atoms: _109  and  _110
REMARK   49  A    between atoms: _110  and  _111
REMARK   50  A    between atoms: _111  and  _112
REMARK   51  A    between atoms: _121  and  _123
REMARK   52  A    between atoms: _123  and  _124
REMARK   53  A    between atoms: _123  and  _126
REMARK   54  A    between atoms: _126  and  _127
REMARK   55  A    between atoms: _131  and  MN_336
REMARK   56  A    between atoms: _132  and  _134
REMARK   57  A    between atoms: _134  and  _135
REMARK   58  A    between atoms: _134  and  _137
REMARK   59  A    between atoms: _137  and  _138
REMARK   60  A    between atoms: _145  and  _146
REMARK   61  A    between atoms: _151  and  _153
REMARK   62  A    between atoms: _153  and  _154
REMARK   63  A    between atoms: _153  and  _156
REMARK   64  A    between atoms: _156  and  _157
REMARK   65  A    between atoms: _159  and  _161
REMARK   66  A    between atoms: _161  and  _162
REMARK   67  A    between atoms: _165  and  _167
REMARK   68  A    between atoms: _167  and  _168
REMARK   69  A    between atoms: _167  and  _170
REMARK   70  A    between atoms: _172  and  _174
REMARK   71  A    between atoms: _174  and  _175
REMARK   72  A    between atoms: _174  and  _177
REMARK   73  A    between atoms: _177  and  _178
REMARK   74  A    between atoms: _178  and  _179
REMARK   75  A    between atoms: _179  and  _180
REMARK   76  A    between atoms: _180  and  _181
REMARK   77  A    between atoms: _185  and  _187
REMARK   78  A    between atoms: _187  and  _188
REMARK   79  A    between atoms: _187  and  _190
REMARK   80  A    between atoms: _190  and  _191
REMARK   81  A    between atoms: _194  and  _196
REMARK   82  A    between atoms: _196  and  _197
REMARK   83  A    between atoms: _196  and  _199
REMARK   84  A    between atoms: _199  and  _200
REMARK   85  A    between atoms: _203  and  _205
REMARK   86  A    between atoms: _205  and  _206
REMARK   87  A    between atoms: _205  and  _208
REMARK   88  A    between atoms: _208  and  _209
REMARK   89  A    between atoms: _209  and  _210
REMARK   90  A    between atoms: _210  and  MN_336
REMARK   91  A    between atoms: _212  and  _214
REMARK   92  A    between atoms: _214  and  _215
REMARK   93  A    between atoms: _214  and  _217
REMARK   94  A    between atoms: _217  and  _218
REMARK   95  A    between atoms: _221  and  _223
REMARK   96  A    between atoms: _223  and  _224
REMARK   97  A    between atoms: _223  and  _226
REMARK   98  A    between atoms: _226  and  _227
REMARK   99  A    between atoms: _227  and  _228
REMARK  100  A    between atoms: _231  and  _233
REMARK  101  A    between atoms: _233  and  _234
REMARK  102  A    between atoms: _233  and  _236
REMARK  103  A    between atoms: _236  and  _237
REMARK  104  A    between atoms: _243  and  _245
REMARK  105  A    between atoms: _245  and  _246
REMARK  106  A    between atoms: _248  and  _250
REMARK  107  A    between atoms: _250  and  _251
REMARK  108  A    between atoms: _250  and  _253
REMARK  109  A    between atoms: _256  and  _258
REMARK  110  A    between atoms: _258  and  _259
REMARK  111  A    between atoms: _258  and  _261
REMARK  112  A    between atoms: _261  and  _262
REMARK  113  A    between atoms: _267  and  _269
REMARK  114  A    between atoms: _269  and  _270
REMARK  115  A    between atoms: _269  and  _272
REMARK  116  A    between atoms: _272  and  _273
REMARK  117  A    between atoms: _273  and  _274
REMARK  118  A    between atoms: _274  and  _275
REMARK  119  A    between atoms: _284  and  _286
REMARK  120  A    between atoms: _286  and  _287
REMARK  121  A    between atoms: _286  and  _289
REMARK  122  A    between atoms: _289  and  _290
REMARK  123  A    between atoms: _293  and  _295
REMARK  124  A    between atoms: _295  and  _296
REMARK  125  A    between atoms: _299  and  _301
REMARK  126  A    between atoms: _301  and  _302
REMARK  127  A    between atoms: _304  and  _306
REMARK  128  A    between atoms: _306  and  _307
REMARK  129  A    between atoms: _310  and  _312
REMARK  130  A    between atoms: _312  and  _313
REMARK  131  A    between atoms: _317  and  _318
REMARK  132  A    between atoms: _323  and  _325
REMARK  133  A    between atoms: _325  and  _326
REMARK  134  A    between atoms: _325  and  _328
REMARK  135  A    between atoms: _328  and  _329
REMARK                            x       y       z     vdW  Elec       q    Type
REMARK                         _______ _______ _______ _____ _____    ______ ____
ROOT
ATOM      1  CA  ARG A   2      18.978  -4.174  39.764  0.00  0.00    +0.137 C 
ENDROOT
BRANCH   1   4
ATOM      2  C   LEU A   1      19.003  -4.321  42.201  0.00  0.00    +0.238 C 
ATOM      3  O   LEU A   1      19.400  -5.487  42.151  0.00  0.00    -0.274 OA
ATOM      4  N   ARG A   2      18.882  -3.548  41.105  0.00  0.00    -0.298 N 
ATOM      5  H   ARG A   2      18.723  -2.524  41.198  0.00  0.00    +0.150 HD
BRANCH   2   6
ATOM      6  CA  LEU A   1      18.579  -3.739  43.557  0.00  0.00    +0.145 C 
BRANCH   6   7
ATOM      7  N   LEU A   1      19.330  -2.552  43.920  0.00  0.00    -0.238 NA
ATOM      8  H   LEU A   1      19.146  -1.649  43.438  0.00  0.00    +0.142 HD
ENDBRANCH   6   7
BRANCH   6   9
ATOM      9  CB  LEU A   1      17.057  -3.492  43.579  0.00  0.00    +0.026 C 
BRANCH   9  10
ATOM     10  CG  LEU A   1      16.469  -3.262  44.991  0.00  0.00    +0.002 C 
ATOM     11  CD2 LEU A   1      16.848  -4.397  45.979  0.00  0.00    +0.000 C 
ATOM     12  CD1 LEU A   1      14.929  -3.049  44.968  0.00  0.00    +0.000 C 
ENDBRANCH   9  10
ENDBRANCH   6   9
ENDBRANCH   2   6
ENDBRANCH   1   4
BRANCH   1  13
ATOM     13  C   ARG A   2      20.366  -4.674  39.424  0.00  0.00    +0.227 C 
ATOM     14  O   ARG A   2      20.540  -5.849  39.149  0.00  0.00    -0.286 OA
ENDBRANCH   1  13
BRANCH   1  15
ATOM     15  CB  ARG A   2      18.413  -3.306  38.626  0.00  0.00    +0.031 C 
BRANCH  15  16
ATOM     16  CG  ARG A   2      16.984  -2.895  38.871  0.00  0.00    +0.045 C 
BRANCH  16  17
ATOM     17  CD  ARG A   2      16.237  -2.533  37.532  0.00  0.00    +0.174 C 
BRANCH  17  18
ATOM     18  NE  ARG A   2      14.930  -1.991  37.886  0.00  0.00    -0.265 N 
ATOM     19  CZ  ARG A   2      14.691  -0.745  38.298  0.00  0.00    +0.342 C 
ATOM     20  NH2 ARG A   2      13.449  -0.398  38.652  0.00  0.00    -0.292 N 
ATOM     21 HH21 ARG A   2      13.252   0.571  38.975  0.00  0.00    +0.255 HD
ATOM     22 HH22 ARG A   2      12.680  -1.097  38.605  0.00  0.00    +0.255 HD
ATOM     23  NH1 ARG A   2      15.674   0.167  38.340  0.00  0.00    -0.292 N 
ATOM     24 HH11 ARG A   2      15.472   1.135  38.664  0.00  0.00    +0.255 HD
ATOM     25 HH12 ARG A   2      16.638  -0.094  38.049  0.00  0.00    +0.255 HD
ATOM     26  HE  ARG A   2      14.114  -2.631  37.811  0.00  0.00    +0.259 HD
ENDBRANCH  17  18
ENDBRANCH  16  17
ENDBRANCH  15  16
ENDBRANCH   1  15
TORSDOF 10
REMARK  Name = ../refined-set-2016/3mof/3mof_pocket.pdb
REMARK  135 active torsions:
REMARK  status: ('A' for Active; 'I' for Inactive)
REMARK    1  A    between atoms: _1  and  _3
REMARK    2  A    between atoms: _3  and  _4
REMARK    3  A    between atoms: _7  and  _9
REMARK    4  A    between atoms: _9  and  _10
REMARK    5  A    between atoms: _9  and  _12
REMARK    6  A    between atoms: _12  and  _13
REMARK    7  A    between atoms: _13  and  _14
REMARK    8  A    between atoms: _14  and  _15
REMARK    9  A    between atoms: _24  and  _26
REMARK   10  A    between atoms: _26  and  _27
REMARK   11  A    between atoms: _26  and  _29
REMARK   12  A    between atoms: _29  and  _30
REMARK   13  A    between atoms: _30  and  _31
REMARK   14  A    between atoms: _34  and  _36
REMARK   15  A    between atoms: _36  and  _37
REMARK   16  A    between atoms: _36  and  _39
REMARK   17  A    between atoms: _39  and  _40
REMARK   18  A    between atoms: _45  and  _46
REMARK   19  A    between atoms: _48  and  _50
REMARK   20  A    between atoms: _50  and  _51
REMARK   21  A    between atoms: _53  and  _55
REMARK   22  A    between atoms: _55  and  _56
REMARK   23  A    between atoms: _58  and  _60
REMARK   24  A    between atoms: _60  and  _61
REMARK   25  A    between atoms: _60  and  _63
REMARK   26  A    between atoms: _63  and  _64
REMARK   27  A    between atoms: _69  and  _71
REMARK   28  A    between atoms: _71  and  _72
REMARK   29  A    between atoms: _71  and  _74
REMARK   30  A    between atoms: _74  and  _75
REMARK   31  A    between atoms: _75  and  _76
REMARK   32  A    between atoms: _76  and  _77
REMARK   33  A    between atoms: _77  and  _78
REMARK   34  A    between atoms: _82  and  _84
REMARK   35  A    between atoms: _84  and  _85
REMARK   36  A    between atoms: _84  and  _87
REMARK   37  A    between atoms: _87  and  _88
REMARK   38  A    between atoms: _88  and  _89
REMARK   39  A    between atoms: _89  and  _90
REMARK   40  A    between atoms: _90  and  _91
REMARK   41  A    between atoms: _95  and  _97
REMARK   42  A    between atoms: _97  and  _98
REMARK   43  A    between atoms: _97  and  _100
REMARK   44  A    between atoms: _100  and  _101
REMARK   45  A    between atoms: _104  and  _106
REMARK   46  A    between atoms: _106  and  _107
REMARK   47  A    between atoms: _106  and  _109
REMARK   48  A    between atoms: _109  and  _110
REMARK   49  A    between atoms: _110  and  _111
REMARK   50  A    between atoms: _111  and  _112
REMARK   51  A    between atoms: _121  and  _123
REMARK   52  A    between atoms: _123  and  _124
REMARK   53  A    between atoms: _123  and  _126
REMARK   54  A    between atoms: _126  and  _127
REMARK   55  A    between atoms: _131  and  MN_336
REMARK   56  A    between atoms: _132  and  _134
REMARK   57  A    between atoms: _134  and  _135
REMARK   58  A    between atoms: _134  and  _137
REMARK   59  A    between atoms: _137  and  _138
REMARK   60  A    between atoms: _145  and  _146
REMARK   61  A    between atoms: _151  and  _153
REMARK   62  A    between atoms: _153  and  _154
REMARK   63  A    between atoms: _153  and  _156
REMARK   64  A    between atoms: _156  and  _157
REMARK   65  A    between atoms: _159  and  _161
REMARK   66  A    between atoms: _161  and  _162
REMARK   67  A    between atoms: _165  and  _167
REMARK   68  A    between atoms: _167  and  _168
REMARK   69  A    between atoms: _167  and  _170
REMARK   70  A    between atoms: _172  and  _174
REMARK   71  A    between atoms: _174  and  _175
REMARK   72  A    between atoms: _174  and  _177
REMARK   73  A    between atoms: _177  and  _178
REMARK   74  A    between atoms: _178  and  _179
REMARK   75  A    between atoms: _179  and  _180
REMARK   76  A    between atoms: _180  and  _181
REMARK   77  A    between atoms: _185  and  _187
REMARK   78  A    between atoms: _187  and  _188
REMARK   79  A    between atoms: _187  and  _190
REMARK   80  A    between atoms: _190  and  _191
REMARK   81  A    between atoms: _194  and  _196
REMARK   82  A    between atoms: _196  and  _197
REMARK   83  A    between atoms: _196  and  _199
REMARK   84  A    between atoms: _199  and  _200
REMARK   85  A    between atoms: _203  and  _205
REMARK   86  A    between atoms: _205  and  _206
REMARK   87  A    between atoms: _205  and  _208
REMARK   88  A    between atoms: _208  and  _209
REMARK   89  A    between atoms: _209  and  _210
REMARK   90  A    between atoms: _210  and  MN_336
REMARK   91  A    between atoms: _212  and  _214
REMARK   92  A    between atoms: _214  and  _215
REMARK   93  A    between atoms: _214  and  _217
REMARK   94  A    between atoms: _217  and  _218
REMARK   95  A    between atoms: _221  and  _223
REMARK   96  A    between atoms: _223  and  _224
REMARK   97  A    between atoms: _223  and  _226
REMARK   98  A    between atoms: _226  and  _227
REMARK   99  A    between atoms: _227  and  _228
REMARK  100  A    between atoms: _231  and  _233
REMARK  101  A    between atoms: _233  and  _234
REMARK  102  A    between atoms: _233  and  _236
REMARK  103  A    between atoms: _236  and  _237
REMARK  104  A    between atoms: _243  and  _245
REMARK  105  A    between atoms: _245  and  _246
REMARK  106  A    between atoms: _248  and  _250
REMARK  107  A    between atoms: _250  and  _251
REMARK  108  A    between atoms: _250  and  _253
REMARK  109  A    between atoms: _256  and  _258
REMARK  110  A    between atoms: _258  and  _259
REMARK  111  A    between atoms: _258  and  _261
REMARK  112  A    between atoms: _261  and  _262
REMARK  113  A    between atoms: _267  and  _269
REMARK  114  A    between atoms: _269  and  _270
REMARK  115  A    between atoms: _269  and  _272
REMARK  116  A    between atoms: _272  and  _273
REMARK  117  A    between atoms: _273  and  _274
REMARK  118  A    between atoms: _274  and  _275
REMARK  119  A    between atoms: _284  and  _286
REMARK  120  A    between atoms: _286  and  _287
REMARK  121  A    between atoms: _286  and  _289
REMARK  122  A    between atoms: _289  and  _290
REMARK  123  A    between atoms: _293  and  _295
REMARK  124  A    between atoms: _295  and  _296
REMARK  125  A    between atoms: _299  and  _301
REMARK  126  A    between atoms: _301  and  _302
REMARK  127  A    between atoms: _304  and  _306
REMARK  128  A    between atoms: _306  and  _307
REMARK  129  A    between atoms: _310  and  _312
REMARK  130  A    between atoms: _312  and  _313
REMARK  131  A    between atoms: _317  and  _318
REMARK  132  A    between atoms: _323  and  _325
REMARK  133  A    between atoms: _325  and  _326
REMARK  134  A    between atoms: _325  and  _328
REMARK  135  A    between atoms: _328  and  _329
REMARK                            x       y       z     vdW  Elec       q    Type
REMARK                         _______ _______ _______ _____ _____    ______ ____
ROOT
ATOM      1  C   UNK A   1      13.616  -0.653  51.709  0.00  0.00    +0.000 C 
ENDROOT
BRANCH   1   2
ATOM      2  C   UNK A   1      14.540  -1.646  50.981  0.00  0.00    +0.000 C 
ATOM      3  N   ILE A   3      15.847  -1.682  51.263  0.00  0.00    +0.000 N 
ATOM      4  H   ILE A   3      16.175  -1.086  52.050  0.00  0.00    +0.000 HD
ATOM      5  O   UNK A   1      14.067  -2.336  50.165  0.00  0.00    +0.000 OA
BRANCH   3   6
ATOM      6  CA  ILE A   3      16.820  -2.447  50.598  0.00  0.00    +0.000 C 
BRANCH   6   7
ATOM      7  CB  ILE A   3      17.834  -1.588  49.777  0.00  0.00    +0.000 C 
ATOM      8  CG2 ILE A   3      18.645  -2.482  48.823  0.00  0.00    +0.000 C 
BRANCH   7   9
ATOM      9  CG1 ILE A   3      17.127  -0.505  48.978  0.00  0.00    +0.000 C 
ATOM     10  CD1 ILE A   3      16.340  -1.081  47.866  0.00  0.00    +0.000 C 
ENDBRANCH   7   9
ENDBRANCH   6   7
BRANCH   6  11
ATOM     11  C   ILE A   3      17.613  -3.273  51.559  0.00  0.00    +0.000 C 
ATOM     12  O   ILE A   3      18.086  -2.692  52.437  0.00  0.00    +0.000 OA
ENDBRANCH   6  11
ENDBRANCH   3   6
ENDBRANCH   1   2
BRANCH   1  13
ATOM     13  N   UNK A   1      13.854  -0.453  53.143  0.00  0.00    +0.000 N 
ATOM     14  C   UNK A   1      12.878  -0.201  53.984  0.00  0.00    +0.000 C 
ATOM     15  O   UNK A   1      11.763  -0.320  53.725  0.00  0.00    +0.000 OA
ATOM     16  H   UNK A   1      14.827  -0.513  53.505  0.00  0.00    +0.000 HD
BRANCH  14  17
ATOM     17  C   UNK A   1      13.236   0.258  55.387  0.00  0.00    +0.000 C 
BRANCH  17  18
ATOM     18  N   UNK A   1      14.657   0.331  55.685  0.00  0.00    +0.000 NA
ATOM     19  H   UNK A   1      15.260   0.985  55.147  0.00  0.00    +0.000 HD
ENDBRANCH  17  18
BRANCH  17  20
ATOM     20  C   UNK A   1      12.485   1.552  55.678  0.00  0.00    +0.000 C 
BRANCH  20  21
ATOM     21  C   UNK A   1      12.627   2.624  54.577  0.00  0.00    +0.000 C 
ATOM     22  O   UNK A   1      11.731   3.433  54.433  0.00  0.00    +0.000 OA
ATOM     23  O   UNK A   1      13.623   2.610  53.917  0.00  0.00    +0.000 OA
ENDBRANCH  20  21
ENDBRANCH  17  20
ENDBRANCH  14  17
ENDBRANCH   1  13
BRANCH   1  24
ATOM     24  C   UNK A   1      13.583   0.704  50.989  0.00  0.00    +0.000 C 
BRANCH  24  25
ATOM     25  C   UNK A   1      12.988   0.645  49.572  0.00  0.00    +0.000 C 
ATOM     26  O   UNK A   1      13.709   0.899  48.645  0.00  0.00    +0.000 OA
BRANCH  25  27
ATOM     27  O   UNK A   1      11.839   0.447  49.475  0.00  0.00    +0.000 OA
BRANCH  27  28
ATOM     28 MN   UNK A   1      10.695   0.403  47.684  0.00  0.00    +0.000 Mn
BRANCH  28  31
ATOM     29  C   UNK A   1      11.561  -3.894  47.289  0.00  0.00    +0.000 A 
ATOM     30  C   UNK A   1      11.768  -2.676  47.854  0.00  0.00    +0.000 A 
ATOM     31  N   UNK A   1      10.676  -1.892  47.550  0.00  0.00    +0.000 N 
ATOM     32  C   UNK A   1       9.806  -2.625  46.874  0.00  0.00    +0.000 A 
ATOM     33  N   UNK A   1      10.337  -3.821  46.657  0.00  0.00    +0.000 NA
BRANCH  29  34
ATOM     34  C   UNK A   1      12.393  -5.143  47.244  0.00  0.00    +0.000 C 
BRANCH  34  35
ATOM     35  C   UNK A   1      13.493  -5.216  48.327  0.00  0.00    +0.000 C 
BRANCH  35  36
ATOM     36  N   UNK A   1      14.381  -6.298  47.970  0.00  0.00    +0.000 NA
ATOM     37  H   UNK A   1      14.015  -7.068  47.374  0.00  0.00    +0.000 HD
ENDBRANCH  35  36
BRANCH  35  38
ATOM     38  C   UNK A   1      12.886  -5.493  49.712  0.00  0.00    +0.000 C 
ATOM     39  O   UNK A   1      11.676  -5.739  49.853  0.00  0.00    +0.000 OA
ENDBRANCH  35  38
ENDBRANCH  34  35
ENDBRANCH  29  34
ENDBRANCH  28  31
ENDBRANCH  27  28
ENDBRANCH  25  27
ENDBRANCH  24  25
ENDBRANCH   1  24
TORSDOF 19
REMARK  Name = ../refined-set-2016/3mof/3mof_pocket.pdb
REMARK  135 active torsions:
REMARK  status: ('A' for Active; 'I' for Inactive)
REMARK    1  A    between atoms: _1  and  _3
REMARK    2  A    between atoms: _3  and  _4
REMARK    3  A    between atoms: _7  and  _9
REMARK    4  A    between atoms: _9  and  _10
REMARK    5  A    between atoms: _9  and  _12
REMARK    6  A    between atoms: _12  and  _13
REMARK    7  A    between atoms: _13  and  _14
REMARK    8  A    between atoms: _14  and  _15
REMARK    9  A    between atoms: _24  and  _26
REMARK   10  A    between atoms: _26  and  _27
REMARK   11  A    between atoms: _26  and  _29
REMARK   12  A    between atoms: _29  and  _30
REMARK   13  A    between atoms: _30  and  _31
REMARK   14  A    between atoms: _34  and  _36
REMARK   15  A    between atoms: _36  and  _37
REMARK   16  A    between atoms: _36  and  _39
REMARK   17  A    between atoms: _39  and  _40
REMARK   18  A    between atoms: _45  and  _46
REMARK   19  A    between atoms: _48  and  _50
REMARK   20  A    between atoms: _50  and  _51
REMARK   21  A    between atoms: _53  and  _55
REMARK   22  A    between atoms: _55  and  _56
REMARK   23  A    between atoms: _58  and  _60
REMARK   24  A    between atoms: _60  and  _61
REMARK   25  A    between atoms: _60  and  _63
REMARK   26  A    between atoms: _63  and  _64
REMARK   27  A    between atoms: _69  and  _71
REMARK   28  A    between atoms: _71  and  _72
REMARK   29  A    between atoms: _71  and  _74
REMARK   30  A    between atoms: _74  and  _75
REMARK   31  A    between atoms: _75  and  _76
REMARK   32  A    between atoms: _76  and  _77
REMARK   33  A    between atoms: _77  and  _78
REMARK   34  A    between atoms: _82  and  _84
REMARK   35  A    between atoms: _84  and  _85
REMARK   36  A    between atoms: _84  and  _87
REMARK   37  A    between atoms: _87  and  _88
REMARK   38  A    between atoms: _88  and  _89
REMARK   39  A    between atoms: _89  and  _90
REMARK   40  A    between atoms: _90  and  _91
REMARK   41  A    between atoms: _95  and  _97
REMARK   42  A    between atoms: _97  and  _98
REMARK   43  A    between atoms: _97  and  _100
REMARK   44  A    between atoms: _100  and  _101
REMARK   45  A    between atoms: _104  and  _106
REMARK   46  A    between atoms: _106  and  _107
REMARK   47  A    between atoms: _106  and  _109
REMARK   48  A    between atoms: _109  and  _110
REMARK   49  A    between atoms: _110  and  _111
REMARK   50  A    between atoms: _111  and  _112
REMARK   51  A    between atoms: _121  and  _123
REMARK   52  A    between atoms: _123  and  _124
REMARK   53  A    between atoms: _123  and  _126
REMARK   54  A    between atoms: _126  and  _127
REMARK   55  A    between atoms: _131  and  MN_336
REMARK   56  A    between atoms: _132  and  _134
REMARK   57  A    between atoms: _134  and  _135
REMARK   58  A    between atoms: _134  and  _137
REMARK   59  A    between atoms: _137  and  _138
REMARK   60  A    between atoms: _145  and  _146
REMARK   61  A    between atoms: _151  and  _153
REMARK   62  A    between atoms: _153  and  _154
REMARK   63  A    between atoms: _153  and  _156
REMARK   64  A    between atoms: _156  and  _157
REMARK   65  A    between atoms: _159  and  _161
REMARK   66  A    between atoms: _161  and  _162
REMARK   67  A    between atoms: _165  and  _167
REMARK   68  A    between atoms: _167  and  _168
REMARK   69  A    between atoms: _167  and  _170
REMARK   70  A    between atoms: _172  and  _174
REMARK   71  A    between atoms: _174  and  _175
REMARK   72  A    between atoms: _174  and  _177
REMARK   73  A    between atoms: _177  and  _178
REMARK   74  A    between atoms: _178  and  _179
REMARK   75  A    between atoms: _179  and  _180
REMARK   76  A    between atoms: _180  and  _181
REMARK   77  A    between atoms: _185  and  _187
REMARK   78  A    between atoms: _187  and  _188
REMARK   79  A    between atoms: _187  and  _190
REMARK   80  A    between atoms: _190  and  _191
REMARK   81  A    between atoms: _194  and  _196
REMARK   82  A    between atoms: _196  and  _197
REMARK   83  A    between atoms: _196  and  _199
REMARK   84  A    between atoms: _199  and  _200
REMARK   85  A    between atoms: _203  and  _205
REMARK   86  A    between atoms: _205  and  _206
REMARK   87  A    between atoms: _205  and  _208
REMARK   88  A    between atoms: _208  and  _209
REMARK   89  A    between atoms: _209  and  _210
REMARK   90  A    between atoms: _210  and  MN_336
REMARK   91  A    between atoms: _212  and  _214
REMARK   92  A    between atoms: _214  and  _215
REMARK   93  A    between atoms: _214  and  _217
REMARK   94  A    between atoms: _217  and  _218
REMARK   95  A    between atoms: _221  and  _223
REMARK   96  A    between atoms: _223  and  _224
REMARK   97  A    between atoms: _223  and  _226
REMARK   98  A    between atoms: _226  and  _227
REMARK   99  A    between atoms: _227  and  _228
REMARK  100  A    between atoms: _231  and  _233
REMARK  101  A    between atoms: _233  and  _234
REMARK  102  A    between atoms: _233  and  _236
REMARK  103  A    between atoms: _236  and  _237
REMARK  104  A    between atoms: _243  and  _245
REMARK  105  A    between atoms: _245  and  _246
REMARK  106  A    between atoms: _248  and  _250
REMARK  107  A    between atoms: _250  and  _251
REMARK  108  A    between atoms: _250  and  _253
REMARK  109  A    between atoms: _256  and  _258
REMARK  110  A    between atoms: _258  and  _259
REMARK  111  A    between atoms: _258  and  _261
REMARK  112  A    between atoms: _261  and  _262
REMARK  113  A    between atoms: _267  and  _269
REMARK  114  A    between atoms: _269  and  _270
REMARK  115  A    between atoms: _269  and  _272
REMARK  116  A    between atoms: _272  and  _273
REMARK  117  A    between atoms: _273  and  _274
REMARK  118  A    between atoms: _274  and  _275
REMARK  119  A    between atoms: _284  and  _286
REMARK  120  A    between atoms: _286  and  _287
REMARK  121  A    between atoms: _286  and  _289
REMARK  122  A    between atoms: _289  and  _290
REMARK  123  A    between atoms: _293  and  _295
REMARK  124  A    between atoms: _295  and  _296
REMARK  125  A    between atoms: _299  and  _301
REMARK  126  A    between atoms: _301  and  _302
REMARK  127  A    between atoms: _304  and  _306
REMARK  128  A    between atoms: _306  and  _307
REMARK  129  A    between atoms: _310  and  _312
REMARK  130  A    between atoms: _312  and  _313
REMARK  131  A    between atoms: _317  and  _318
REMARK  132  A    between atoms: _323  and  _325
REMARK  133  A    between atoms: _325  and  _326
REMARK  134  A    between atoms: _325  and  _328
REMARK  135  A    between atoms: _328  and  _329
REMARK                            x       y       z     vdW  Elec       q    Type
REMARK                         _______ _______ _______ _____ _____    ______ ____
ROOT
ATOM      1  C   PRO A   2       5.734  -3.086  47.597  0.00  0.00    +0.241 C 
ATOM      2  O   PRO A   2       5.303  -2.666  48.666  0.00  0.00    -0.273 OA
ATOM      3  N   SER A   3       6.135  -2.298  46.612  0.00  0.00    -0.295 N 
ATOM      4  H   SER A   3       6.496  -2.725  45.735  0.00  0.00    +0.150 HD
ENDROOT
BRANCH   1  11
ATOM      5  C   PHE A   1       6.495  -5.344  49.343  0.00  0.00    +0.242 C 
ATOM      6  O   PHE A   1       7.427  -4.567  49.249  0.00  0.00    -0.273 OA
ATOM      7  N   PRO A   2       5.516  -5.371  48.434  0.00  0.00    -0.272 N 
ATOM      8  CD  PRO A   2       4.527  -6.439  48.259  0.00  0.00    +0.094 C 
ATOM      9  CG  PRO A   2       4.112  -6.316  46.788  0.00  0.00    +0.024 C 
ATOM     10  CB  PRO A   2       4.526  -4.913  46.391  0.00  0.00    +0.031 C 
ATOM     11  CA  PRO A   2       5.744  -4.584  47.285  0.00  0.00    +0.152 C 
BRANCH   5  12
ATOM     12  CA  PHE A   1       6.351  -6.263  50.539  0.00  0.00    +0.149 C 
BRANCH  12  13
ATOM     13  N   PHE A   1       7.713  -6.583  51.034  0.00  0.00    -0.238 NA
ATOM     14  H   PHE A   1       8.329  -5.804  51.345  0.00  0.00    +0.142 HD
ENDBRANCH  12  13
BRANCH  12  15
ATOM     15  CB  PHE A   1       5.573  -5.446  51.579  0.00  0.00    +0.053 C 
BRANCH  15  16
ATOM     16  CG  PHE A   1       5.630  -5.975  52.990  0.00  0.00    -0.020 A 
ATOM     17  CD2 PHE A   1       5.641  -5.072  54.069  0.00  0.00    -0.004 A 
ATOM     18  CE2 PHE A   1       5.623  -5.549  55.401  0.00  0.00    -0.000 A 
ATOM     19  CZ  PHE A   1       5.602  -6.948  55.647  0.00  0.00    -0.000 A 
ATOM     20  CE1 PHE A   1       5.599  -7.840  54.591  0.00  0.00    -0.000 A 
ATOM     21  CD1 PHE A   1       5.602  -7.350  53.261  0.00  0.00    -0.004 A 
ENDBRANCH  15  16
ENDBRANCH  12  15
ENDBRANCH   5  12
ENDBRANCH   1  11
BRANCH   3  22
ATOM     22  CA  SER A   3       6.083  -0.848  46.727  0.00  0.00    +0.178 C 
BRANCH  22  23
ATOM     23  C   SER A   3       4.725  -0.422  47.267  0.00  0.00    +0.243 C 
ATOM     24  N   ALA A   4       4.757   0.514  48.210  0.00  0.00    -0.297 N 
ATOM     25  H   ALA A   4       5.672   0.901  48.517  0.00  0.00    +0.150 HD
ATOM     26  O   SER A   3       3.656  -0.948  46.857  0.00  0.00    -0.273 OA
BRANCH  24  27
ATOM     27  CA  ALA A   4       3.531   1.004  48.818  0.00  0.00    +0.149 C 
ATOM     28  CB  ALA A   4       2.717   1.809  47.798  0.00  0.00    +0.031 C 
BRANCH  27  29
ATOM     29  C   ALA A   4       2.681  -0.052  49.574  0.00  0.00    +0.241 C 
ATOM     30  N   CYS A   5       3.328  -1.069  50.157  0.00  0.00    -0.297 N 
ATOM     31  H   CYS A   5       4.365  -1.128  50.099  0.00  0.00    +0.150 HD
ATOM     32  O   ALA A   4       1.475   0.074  49.679  0.00  0.00    -0.273 OA
BRANCH  30  33
ATOM     33  CA  CYS A   5       2.565  -2.111  50.886  0.00  0.00    +0.149 C 
BRANCH  33  34
ATOM     34  C   CYS A   5       2.986  -2.273  52.371  0.00  0.00    +0.228 C 
ATOM     35  O   CYS A   5       2.755  -3.324  53.003  0.00  0.00    -0.286 OA
ENDBRANCH  33  34
BRANCH  33  36
ATOM     36  CB  CYS A   5       2.613  -3.447  50.117  0.00  0.00    +0.096 C 
ATOM     37  SG  CYS A   5       1.545  -3.458  48.587  0.00  0.00    -0.080 S 
ENDBRANCH  33  36
ENDBRANCH  30  33
ENDBRANCH  27  29
ENDBRANCH  24  27
ENDBRANCH  22  23
BRANCH  22  38
ATOM     38  CB  SER A   3       6.386  -0.196  45.372  0.00  0.00    +0.166 C 
BRANCH  38  39
ATOM     39  OG  SER A   3       7.629  -0.659  44.860  0.00  0.00    -0.380 OA
ATOM     40  H   SER A   3       8.352  -0.430  45.496  0.00  0.00    +0.211 HD
ENDBRANCH  38  39
ENDBRANCH  22  38
ENDBRANCH   3  22
TORSDOF 14
REMARK  Name = ../refined-set-2016/3mof/3mof_pocket.pdb
REMARK  135 active torsions:
REMARK  status: ('A' for Active; 'I' for Inactive)
REMARK    1  A    between atoms: _1  and  _3
REMARK    2  A    between atoms: _3  and  _4
REMARK    3  A    between atoms: _7  and  _9
REMARK    4  A    between atoms: _9  and  _10
REMARK    5  A    between atoms: _9  and  _12
REMARK    6  A    between atoms: _12  and  _13
REMARK    7  A    between atoms: _13  and  _14
REMARK    8  A    between atoms: _14  and  _15
REMARK    9  A    between atoms: _24  and  _26
REMARK   10  A    between atoms: _26  and  _27
REMARK   11  A    between atoms: _26  and  _29
REMARK   12  A    between atoms: _29  and  _30
REMARK   13  A    between atoms: _30  and  _31
REMARK   14  A    between atoms: _34  and  _36
REMARK   15  A    between atoms: _36  and  _37
REMARK   16  A    between atoms: _36  and  _39
REMARK   17  A    between atoms: _39  and  _40
REMARK   18  A    between atoms: _45  and  _46
REMARK   19  A    between atoms: _48  and  _50
REMARK   20  A    between atoms: _50  and  _51
REMARK   21  A    between atoms: _53  and  _55
REMARK   22  A    between atoms: _55  and  _56
REMARK   23  A    between atoms: _58  and  _60
REMARK   24  A    between atoms: _60  and  _61
REMARK   25  A    between atoms: _60  and  _63
REMARK   26  A    between atoms: _63  and  _64
REMARK   27  A    between atoms: _69  and  _71
REMARK   28  A    between atoms: _71  and  _72
REMARK   29  A    between atoms: _71  and  _74
REMARK   30  A    between atoms: _74  and  _75
REMARK   31  A    between atoms: _75  and  _76
REMARK   32  A    between atoms: _76  and  _77
REMARK   33  A    between atoms: _77  and  _78
REMARK   34  A    between atoms: _82  and  _84
REMARK   35  A    between atoms: _84  and  _85
REMARK   36  A    between atoms: _84  and  _87
REMARK   37  A    between atoms: _87  and  _88
REMARK   38  A    between atoms: _88  and  _89
REMARK   39  A    between atoms: _89  and  _90
REMARK   40  A    between atoms: _90  and  _91
REMARK   41  A    between atoms: _95  and  _97
REMARK   42  A    between atoms: _97  and  _98
REMARK   43  A    between atoms: _97  and  _100
REMARK   44  A    between atoms: _100  and  _101
REMARK   45  A    between atoms: _104  and  _106
REMARK   46  A    between atoms: _106  and  _107
REMARK   47  A    between atoms: _106  and  _109
REMARK   48  A    between atoms: _109  and  _110
REMARK   49  A    between atoms: _110  and  _111
REMARK   50  A    between atoms: _111  and  _112
REMARK   51  A    between atoms: _121  and  _123
REMARK   52  A    between atoms: _123  and  _124
REMARK   53  A    between atoms: _123  and  _126
REMARK   54  A    between atoms: _126  and  _127
REMARK   55  A    between atoms: _131  and  MN_336
REMARK   56  A    between atoms: _132  and  _134
REMARK   57  A    between atoms: _134  and  _135
REMARK   58  A    between atoms: _134  and  _137
REMARK   59  A    between atoms: _137  and  _138
REMARK   60  A    between atoms: _145  and  _146
REMARK   61  A    between atoms: _151  and  _153
REMARK   62  A    between atoms: _153  and  _154
REMARK   63  A    between atoms: _153  and  _156
REMARK   64  A    between atoms: _156  and  _157
REMARK   65  A    between atoms: _159  and  _161
REMARK   66  A    between atoms: _161  and  _162
REMARK   67  A    between atoms: _165  and  _167
REMARK   68  A    between atoms: _167  and  _168
REMARK   69  A    between atoms: _167  and  _170
REMARK   70  A    between atoms: _172  and  _174
REMARK   71  A    between atoms: _174  and  _175
REMARK   72  A    between atoms: _174  and  _177
REMARK   73  A    between atoms: _177  and  _178
REMARK   74  A    between atoms: _178  and  _179
REMARK   75  A    between atoms: _179  and  _180
REMARK   76  A    between atoms: _180  and  _181
REMARK   77  A    between atoms: _185  and  _187
REMARK   78  A    between atoms: _187  and  _188
REMARK   79  A    between atoms: _187  and  _190
REMARK   80  A    between atoms: _190  and  _191
REMARK   81  A    between atoms: _194  and  _196
REMARK   82  A    between atoms: _196  and  _197
REMARK   83  A    between atoms: _196  and  _199
REMARK   84  A    between atoms: _199  and  _200
REMARK   85  A    between atoms: _203  and  _205
REMARK   86  A    between atoms: _205  and  _206
REMARK   87  A    between atoms: _205  and  _208
REMARK   88  A    between atoms: _208  and  _209
REMARK   89  A    between atoms: _209  and  _210
REMARK   90  A    between atoms: _210  and  MN_336
REMARK   91  A    between atoms: _212  and  _214
REMARK   92  A    between atoms: _214  and  _215
REMARK   93  A    between atoms: _214  and  _217
REMARK   94  A    between atoms: _217  and  _218
REMARK   95  A    between atoms: _221  and  _223
REMARK   96  A    between atoms: _223  and  _224
REMARK   97  A    between atoms: _223  and  _226
REMARK   98  A    between atoms: _226  and  _227
REMARK   99  A    between atoms: _227  and  _228
REMARK  100  A    between atoms: _231  and  _233
REMARK  101  A    between atoms: _233  and  _234
REMARK  102  A    between atoms: _233  and  _236
REMARK  103  A    between atoms: _236  and  _237
REMARK  104  A    between atoms: _243  and  _245
REMARK  105  A    between atoms: _245  and  _246
REMARK  106  A    between atoms: _248  and  _250
REMARK  107  A    between atoms: _250  and  _251
REMARK  108  A    between atoms: _250  and  _253
REMARK  109  A    between atoms: _256  and  _258
REMARK  110  A    between atoms: _258  and  _259
REMARK  111  A    between atoms: _258  and  _261
REMARK  112  A    between atoms: _261  and  _262
REMARK  113  A    between atoms: _267  and  _269
REMARK  114  A    between atoms: _269  and  _270
REMARK  115  A    between atoms: _269  and  _272
REMARK  116  A    between atoms: _272  and  _273
REMARK  117  A    between atoms: _273  and  _274
REMARK  118  A    between atoms: _274  and  _275
REMARK  119  A    between atoms: _284  and  _286
REMARK  120  A    between atoms: _286  and  _287
REMARK  121  A    between atoms: _286  and  _289
REMARK  122  A    between atoms: _289  and  _290
REMARK  123  A    between atoms: _293  and  _295
REMARK  124  A    between atoms: _295  and  _296
REMARK  125  A    between atoms: _299  and  _301
REMARK  126  A    between atoms: _301  and  _302
REMARK  127  A    between atoms: _304  and  _306
REMARK  128  A    between atoms: _306  and  _307
REMARK  129  A    between atoms: _310  and  _312
REMARK  130  A    between atoms: _312  and  _313
REMARK  131  A    between atoms: _317  and  _318
REMARK  132  A    between atoms: _323  and  _325
REMARK  133  A    between atoms: _325  and  _326
REMARK  134  A    between atoms: _325  and  _328
REMARK  135  A    between atoms: _328  and  _329
REMARK                            x       y       z     vdW  Elec       q    Type
REMARK                         _______ _______ _______ _____ _____    ______ ____
ROOT
ATOM      1  CA  LYS A   1       7.544  -1.844  54.683  0.00  0.00    +0.145 C 
ENDROOT
BRANCH   1   2
ATOM      2  C   LYS A   1       7.999  -0.777  55.685  0.00  0.00    +0.238 C 
ATOM      3  O   LYS A   1       8.501  -1.085  56.769  0.00  0.00    -0.274 OA
ATOM      4  N   THR A   2       7.900   0.479  55.279  0.00  0.00    -0.296 N 
ATOM      5  H   THR A   2       7.456   0.694  54.363  0.00  0.00    +0.150 HD
BRANCH   4   6
ATOM      6  CA  THR A   2       8.416   1.574  56.119  0.00  0.00    +0.164 C 
BRANCH   6   7
ATOM      7  C   THR A   2       7.635   1.658  57.455  0.00  0.00    +0.229 C 
ATOM      8  O   THR A   2       8.243   1.864  58.518  0.00  0.00    -0.286 OA
ENDBRANCH   6   7
BRANCH   6   9
ATOM      9  CB  THR A   2       8.469   2.938  55.348  0.00  0.00    +0.136 C 
ATOM     10  CG2 THR A   2       8.923   4.065  56.321  0.00  0.00    +0.034 C 
BRANCH   9  11
ATOM     11  OG1 THR A   2       9.456   2.851  54.304  0.00  0.00    -0.382 OA
ATOM     12  HG1 THR A   2      10.341   2.659  54.704  0.00  0.00    +0.210 HD
ENDBRANCH   9  11
ENDBRANCH   6   9
ENDBRANCH   4   6
ENDBRANCH   1   2
BRANCH   1  13
ATOM     13  N   LYS A   1       6.224  -1.530  54.099  0.00  0.00    -0.238 NA
ATOM     14  H   LYS A   1       6.112  -1.368  53.078  0.00  0.00    +0.142 HD
ENDBRANCH   1  13
BRANCH   1  15
ATOM     15  CB  LYS A   1       8.665  -2.033  53.624  0.00  0.00    +0.026 C 
BRANCH  15  16
ATOM     16  CG  LYS A   1       8.614  -3.353  52.797  0.00  0.00    -0.000 C 
BRANCH  16  17
ATOM     17  CD  LYS A   1       9.776  -3.450  51.799  0.00  0.00    -0.024 C 
BRANCH  17  18
ATOM     18  CE  LYS A   1       9.875  -2.217  50.896  0.00  0.00    -0.086 C 
BRANCH  18  19
ATOM     19  NZ  LYS A   1       8.588  -2.042  50.050  0.00  0.00    +0.380 N 
ATOM     20  HZ1 LYS A   1       7.771  -1.927  50.683  0.00  0.00    -0.089 HD
ATOM     21  HZ2 LYS A   1       8.450  -2.882  49.453  0.00  0.00    -0.089 HD
ATOM     22  HZ3 LYS A   1       8.682  -1.199  49.448  0.00  0.00    -0.089 HD
ENDBRANCH  18  19
ENDBRANCH  17  18
ENDBRANCH  16  17
ENDBRANCH  15  16
ENDBRANCH   1  15
TORSDOF 11
REMARK  Name = ../refined-set-2016/3mof/3mof_pocket.pdb
REMARK  135 active torsions:
REMARK  status: ('A' for Active; 'I' for Inactive)
REMARK    1  A    between atoms: _1  and  _3
REMARK    2  A    between atoms: _3  and  _4
REMARK    3  A    between atoms: _7  and  _9
REMARK    4  A    between atoms: _9  and  _10
REMARK    5  A    between atoms: _9  and  _12
REMARK    6  A    between atoms: _12  and  _13
REMARK    7  A    between atoms: _13  and  _14
REMARK    8  A    between atoms: _14  and  _15
REMARK    9  A    between atoms: _24  and  _26
REMARK   10  A    between atoms: _26  and  _27
REMARK   11  A    between atoms: _26  and  _29
REMARK   12  A    between atoms: _29  and  _30
REMARK   13  A    between atoms: _30  and  _31
REMARK   14  A    between atoms: _34  and  _36
REMARK   15  A    between atoms: _36  and  _37
REMARK   16  A    between atoms: _36  and  _39
REMARK   17  A    between atoms: _39  and  _40
REMARK   18  A    between atoms: _45  and  _46
REMARK   19  A    between atoms: _48  and  _50
REMARK   20  A    between atoms: _50  and  _51
REMARK   21  A    between atoms: _53  and  _55
REMARK   22  A    between atoms: _55  and  _56
REMARK   23  A    between atoms: _58  and  _60
REMARK   24  A    between atoms: _60  and  _61
REMARK   25  A    between atoms: _60  and  _63
REMARK   26  A    between atoms: _63  and  _64
REMARK   27  A    between atoms: _69  and  _71
REMARK   28  A    between atoms: _71  and  _72
REMARK   29  A    between atoms: _71  and  _74
REMARK   30  A    between atoms: _74  and  _75
REMARK   31  A    between atoms: _75  and  _76
REMARK   32  A    between atoms: _76  and  _77
REMARK   33  A    between atoms: _77  and  _78
REMARK   34  A    between atoms: _82  and  _84
REMARK   35  A    between atoms: _84  and  _85
REMARK   36  A    between atoms: _84  and  _87
REMARK   37  A    between atoms: _87  and  _88
REMARK   38  A    between atoms: _88  and  _89
REMARK   39  A    between atoms: _89  and  _90
REMARK   40  A    between atoms: _90  and  _91
REMARK   41  A    between atoms: _95  and  _97
REMARK   42  A    between atoms: _97  and  _98
REMARK   43  A    between atoms: _97  and  _100
REMARK   44  A    between atoms: _100  and  _101
REMARK   45  A    between atoms: _104  and  _106
REMARK   46  A    between atoms: _106  and  _107
REMARK   47  A    between atoms: _106  and  _109
REMARK   48  A    between atoms: _109  and  _110
REMARK   49  A    between atoms: _110  and  _111
REMARK   50  A    between atoms: _111  and  _112
REMARK   51  A    between atoms: _121  and  _123
REMARK   52  A    between atoms: _123  and  _124
REMARK   53  A    between atoms: _123  and  _126
REMARK   54  A    between atoms: _126  and  _127
REMARK   55  A    between atoms: _131  and  MN_336
REMARK   56  A    between atoms: _132  and  _134
REMARK   57  A    between atoms: _134  and  _135
REMARK   58  A    between atoms: _134  and  _137
REMARK   59  A    between atoms: _137  and  _138
REMARK   60  A    between atoms: _145  and  _146
REMARK   61  A    between atoms: _151  and  _153
REMARK   62  A    between atoms: _153  and  _154
REMARK   63  A    between atoms: _153  and  _156
REMARK   64  A    between atoms: _156  and  _157
REMARK   65  A    between atoms: _159  and  _161
REMARK   66  A    between atoms: _161  and  _162
REMARK   67  A    between atoms: _165  and  _167
REMARK   68  A    between atoms: _167  and  _168
REMARK   69  A    between atoms: _167  and  _170
REMARK   70  A    between atoms: _172  and  _174
REMARK   71  A    between atoms: _174  and  _175
REMARK   72  A    between atoms: _174  and  _177
REMARK   73  A    between atoms: _177  and  _178
REMARK   74  A    between atoms: _178  and  _179
REMARK   75  A    between atoms: _179  and  _180
REMARK   76  A    between atoms: _180  and  _181
REMARK   77  A    between atoms: _185  and  _187
REMARK   78  A    between atoms: _187  and  _188
REMARK   79  A    between atoms: _187  and  _190
REMARK   80  A    between atoms: _190  and  _191
REMARK   81  A    between atoms: _194  and  _196
REMARK   82  A    between atoms: _196  and  _197
REMARK   83  A    between atoms: _196  and  _199
REMARK   84  A    between atoms: _199  and  _200
REMARK   85  A    between atoms: _203  and  _205
REMARK   86  A    between atoms: _205  and  _206
REMARK   87  A    between atoms: _205  and  _208
REMARK   88  A    between atoms: _208  and  _209
REMARK   89  A    between atoms: _209  and  _210
REMARK   90  A    between atoms: _210  and  MN_336
REMARK   91  A    between atoms: _212  and  _214
REMARK   92  A    between atoms: _214  and  _215
REMARK   93  A    between atoms: _214  and  _217
REMARK   94  A    between atoms: _217  and  _218
REMARK   95  A    between atoms: _221  and  _223
REMARK   96  A    between atoms: _223  and  _224
REMARK   97  A    between atoms: _223  and  _226
REMARK   98  A    between atoms: _226  and  _227
REMARK   99  A    between atoms: _227  and  _228
REMARK  100  A    between atoms: _231  and  _233
REMARK  101  A    between atoms: _233  and  _234
REMARK  102  A    between atoms: _233  and  _236
REMARK  103  A    between atoms: _236  and  _237
REMARK  104  A    between atoms: _243  and  _245
REMARK  105  A    between atoms: _245  and  _246
REMARK  106  A    between atoms: _248  and  _250
REMARK  107  A    between atoms: _250  and  _251
REMARK  108  A    between atoms: _250  and  _253
REMARK  109  A    between atoms: _256  and  _258
REMARK  110  A    between atoms: _258  and  _259
REMARK  111  A    between atoms: _258  and  _261
REMARK  112  A    between atoms: _261  and  _262
REMARK  113  A    between atoms: _267  and  _269
REMARK  114  A    between atoms: _269  and  _270
REMARK  115  A    between atoms: _269  and  _272
REMARK  116  A    between atoms: _272  and  _273
REMARK  117  A    between atoms: _273  and  _274
REMARK  118  A    between atoms: _274  and  _275
REMARK  119  A    between atoms: _284  and  _286
REMARK  120  A    between atoms: _286  and  _287
REMARK  121  A    between atoms: _286  and  _289
REMARK  122  A    between atoms: _289  and  _290
REMARK  123  A    between atoms: _293  and  _295
REMARK  124  A    between atoms: _295  and  _296
REMARK  125  A    between atoms: _299  and  _301
REMARK  126  A    between atoms: _301  and  _302
REMARK  127  A    between atoms: _304  and  _306
REMARK  128  A    between atoms: _306  and  _307
REMARK  129  A    between atoms: _310  and  _312
REMARK  130  A    between atoms: _312  and  _313
REMARK  131  A    between atoms: _317  and  _318
REMARK  132  A    between atoms: _323  and  _325
REMARK  133  A    between atoms: _325  and  _326
REMARK  134  A    between atoms: _325  and  _328
REMARK  135  A    between atoms: _328  and  _329
REMARK                            x       y       z     vdW  Elec       q    Type
REMARK                         _______ _______ _______ _____ _____    ______ ____
ROOT
ATOM      1  CA  GLU A   1      21.021   3.117  52.180  0.00  0.00    +0.134 C 
ENDROOT
BRANCH   1   2
ATOM      2  N   GLU A   1      21.452   1.721  52.217  0.00  0.00    -0.239 NA
ATOM      3  H   GLU A   1      20.780   0.993  52.533  0.00  0.00    +0.142 HD
ENDBRANCH   1   2
BRANCH   1   4
ATOM      4  C   GLU A   1      21.444   3.911  53.415  0.00  0.00    +0.224 C 
ATOM      5  O   GLU A   1      21.847   3.345  54.429  0.00  0.00    -0.287 OA
ENDBRANCH   1   4
BRANCH   1   6
ATOM      6  CB  GLU A   1      19.515   3.231  51.994  0.00  0.00    +0.037 C 
BRANCH   6   7
ATOM      7  CG  GLU A   1      18.996   2.528  50.773  0.00  0.00    +0.116 C 
BRANCH   7   8
ATOM      8  CD  GLU A   1      17.629   3.013  50.440  0.00  0.00    +0.365 C 
ATOM      9  OE2 GLU A   1      16.693   2.633  51.179  0.00  0.00    -0.246 OA
ATOM     10  OE1 GLU A   1      17.511   3.772  49.453  0.00  0.00    -0.246 OA
ENDBRANCH   7   8
ENDBRANCH   6   7
ENDBRANCH   1   6
TORSDOF 5
REMARK  Name = ../refined-set-2016/3mof/3mof_pocket.pdb
REMARK  135 active torsions:
REMARK  status: ('A' for Active; 'I' for Inactive)
REMARK    1  A    between atoms: _1  and  _3
REMARK    2  A    between atoms: _3  and  _4
REMARK    3  A    between atoms: _7  and  _9
REMARK    4  A    between atoms: _9  and  _10
REMARK    5  A    between atoms: _9  and  _12
REMARK    6  A    between atoms: _12  and  _13
REMARK    7  A    between atoms: _13  and  _14
REMARK    8  A    between atoms: _14  and  _15
REMARK    9  A    between atoms: _24  and  _26
REMARK   10  A    between atoms: _26  and  _27
REMARK   11  A    between atoms: _26  and  _29
REMARK   12  A    between atoms: _29  and  _30
REMARK   13  A    between atoms: _30  and  _31
REMARK   14  A    between atoms: _34  and  _36
REMARK   15  A    between atoms: _36  and  _37
REMARK   16  A    between atoms: _36  and  _39
REMARK   17  A    between atoms: _39  and  _40
REMARK   18  A    between atoms: _45  and  _46
REMARK   19  A    between atoms: _48  and  _50
REMARK   20  A    between atoms: _50  and  _51
REMARK   21  A    between atoms: _53  and  _55
REMARK   22  A    between atoms: _55  and  _56
REMARK   23  A    between atoms: _58  and  _60
REMARK   24  A    between atoms: _60  and  _61
REMARK   25  A    between atoms: _60  and  _63
REMARK   26  A    between atoms: _63  and  _64
REMARK   27  A    between atoms: _69  and  _71
REMARK   28  A    between atoms: _71  and  _72
REMARK   29  A    between atoms: _71  and  _74
REMARK   30  A    between atoms: _74  and  _75
REMARK   31  A    between atoms: _75  and  _76
REMARK   32  A    between atoms: _76  and  _77
REMARK   33  A    between atoms: _77  and  _78
REMARK   34  A    between atoms: _82  and  _84
REMARK   35  A    between atoms: _84  and  _85
REMARK   36  A    between atoms: _84  and  _87
REMARK   37  A    between atoms: _87  and  _88
REMARK   38  A    between atoms: _88  and  _89
REMARK   39  A    between atoms: _89  and  _90
REMARK   40  A    between atoms: _90  and  _91
REMARK   41  A    between atoms: _95  and  _97
REMARK   42  A    between atoms: _97  and  _98
REMARK   43  A    between atoms: _97  and  _100
REMARK   44  A    between atoms: _100  and  _101
REMARK   45  A    between atoms: _104  and  _106
REMARK   46  A    between atoms: _106  and  _107
REMARK   47  A    between atoms: _106  and  _109
REMARK   48  A    between atoms: _109  and  _110
REMARK   49  A    between atoms: _110  and  _111
REMARK   50  A    between atoms: _111  and  _112
REMARK   51  A    between atoms: _121  and  _123
REMARK   52  A    between atoms: _123  and  _124
REMARK   53  A    between atoms: _123  and  _126
REMARK   54  A    between atoms: _126  and  _127
REMARK   55  A    between atoms: _131  and  MN_336
REMARK   56  A    between atoms: _132  and  _134
REMARK   57  A    between atoms: _134  and  _135
REMARK   58  A    between atoms: _134  and  _137
REMARK   59  A    between atoms: _137  and  _138
REMARK   60  A    between atoms: _145  and  _146
REMARK   61  A    between atoms: _151  and  _153
REMARK   62  A    between atoms: _153  and  _154
REMARK   63  A    between atoms: _153  and  _156
REMARK   64  A    between atoms: _156  and  _157
REMARK   65  A    between atoms: _159  and  _161
REMARK   66  A    between atoms: _161  and  _162
REMARK   67  A    between atoms: _165  and  _167
REMARK   68  A    between atoms: _167  and  _168
REMARK   69  A    between atoms: _167  and  _170
REMARK   70  A    between atoms: _172  and  _174
REMARK   71  A    between atoms: _174  and  _175
REMARK   72  A    between atoms: _174  and  _177
REMARK   73  A    between atoms: _177  and  _178
REMARK   74  A    between atoms: _178  and  _179
REMARK   75  A    between atoms: _179  and  _180
REMARK   76  A    between atoms: _180  and  _181
REMARK   77  A    between atoms: _185  and  _187
REMARK   78  A    between atoms: _187  and  _188
REMARK   79  A    between atoms: _187  and  _190
REMARK   80  A    between atoms: _190  and  _191
REMARK   81  A    between atoms: _194  and  _196
REMARK   82  A    between atoms: _196  and  _197
REMARK   83  A    between atoms: _196  and  _199
REMARK   84  A    between atoms: _199  and  _200
REMARK   85  A    between atoms: _203  and  _205
REMARK   86  A    between atoms: _205  and  _206
REMARK   87  A    between atoms: _205  and  _208
REMARK   88  A    between atoms: _208  and  _209
REMARK   89  A    between atoms: _209  and  _210
REMARK   90  A    between atoms: _210  and  MN_336
REMARK   91  A    between atoms: _212  and  _214
REMARK   92  A    between atoms: _214  and  _215
REMARK   93  A    between atoms: _214  and  _217
REMARK   94  A    between atoms: _217  and  _218
REMARK   95  A    between atoms: _221  and  _223
REMARK   96  A    between atoms: _223  and  _224
REMARK   97  A    between atoms: _223  and  _226
REMARK   98  A    between atoms: _226  and  _227
REMARK   99  A    between atoms: _227  and  _228
REMARK  100  A    between atoms: _231  and  _233
REMARK  101  A    between atoms: _233  and  _234
REMARK  102  A    between atoms: _233  and  _236
REMARK  103  A    between atoms: _236  and  _237
REMARK  104  A    between atoms: _243  and  _245
REMARK  105  A    between atoms: _245  and  _246
REMARK  106  A    between atoms: _248  and  _250
REMARK  107  A    between atoms: _250  and  _251
REMARK  108  A    between atoms: _250  and  _253
REMARK  109  A    between atoms: _256  and  _258
REMARK  110  A    between atoms: _258  and  _259
REMARK  111  A    between atoms: _258  and  _261
REMARK  112  A    between atoms: _261  and  _262
REMARK  113  A    between atoms: _267  and  _269
REMARK  114  A    between atoms: _269  and  _270
REMARK  115  A    between atoms: _269  and  _272
REMARK  116  A    between atoms: _272  and  _273
REMARK  117  A    between atoms: _273  and  _274
REMARK  118  A    between atoms: _274  and  _275
REMARK  119  A    between atoms: _284  and  _286
REMARK  120  A    between atoms: _286  and  _287
REMARK  121  A    between atoms: _286  and  _289
REMARK  122  A    between atoms: _289  and  _290
REMARK  123  A    between atoms: _293  and  _295
REMARK  124  A    between atoms: _295  and  _296
REMARK  125  A    between atoms: _299  and  _301
REMARK  126  A    between atoms: _301  and  _302
REMARK  127  A    between atoms: _304  and  _306
REMARK  128  A    between atoms: _306  and  _307
REMARK  129  A    between atoms: _310  and  _312
REMARK  130  A    between atoms: _312  and  _313
REMARK  131  A    between atoms: _317  and  _318
REMARK  132  A    between atoms: _323  and  _325
REMARK  133  A    between atoms: _325  and  _326
REMARK  134  A    between atoms: _325  and  _328
REMARK  135  A    between atoms: _328  and  _329
REMARK                            x       y       z     vdW  Elec       q    Type
REMARK                         _______ _______ _______ _____ _____    ______ ____
ROOT
ATOM      1  C   PHE A   1      11.284   7.279  50.999  0.00  0.00    +0.239 C 
ATOM      2  N   GLY A   2      10.547   7.753  52.007  0.00  0.00    -0.296 N 
ATOM      3  H   GLY A   2      10.924   8.535  52.579  0.00  0.00    +0.150 HD
ATOM      4  O   PHE A   1      10.824   6.515  50.128  0.00  0.00    -0.274 OA
ENDROOT
BRANCH   1   5
ATOM      5  CA  PHE A   1      12.742   7.725  50.942  0.00  0.00    +0.149 C 
BRANCH   5   6
ATOM      6  N   PHE A   1      13.475   7.021  52.008  0.00  0.00    -0.238 NA
ATOM      7  H   PHE A   1      13.697   6.012  51.889  0.00  0.00    +0.142 HD
ENDBRANCH   5   6
BRANCH   5   8
ATOM      8  CB  PHE A   1      13.378   7.378  49.583  0.00  0.00    +0.053 C 
BRANCH   8   9
ATOM      9  CG  PHE A   1      12.826   8.158  48.407  0.00  0.00    -0.020 A 
ATOM     10  CD2 PHE A   1      12.992   9.548  48.331  0.00  0.00    -0.004 A 
ATOM     11  CE2 PHE A   1      12.493  10.280  47.249  0.00  0.00    -0.000 A 
ATOM     12  CZ  PHE A   1      11.830   9.607  46.227  0.00  0.00    -0.000 A 
ATOM     13  CE1 PHE A   1      11.649   8.219  46.289  0.00  0.00    -0.000 A 
ATOM     14  CD1 PHE A   1      12.120   7.497  47.379  0.00  0.00    -0.004 A 
ENDBRANCH   8   9
ENDBRANCH   5   8
ENDBRANCH   1   5
BRANCH   2  15
ATOM     15  CA  GLY A   2       9.216   7.207  52.339  0.00  0.00    +0.176 C 
BRANCH  15  16
ATOM     16  C   GLY A   2       7.990   7.894  51.736  0.00  0.00    +0.243 C 
ATOM     17  O   GLY A   2       7.946   9.108  51.570  0.00  0.00    -0.273 OA
ATOM     18  N   VAL A   3       6.992   7.082  51.417  0.00  0.00    -0.298 N 
ATOM     19  H   VAL A   3       7.163   6.056  51.427  0.00  0.00    +0.150 HD
BRANCH  18  20
ATOM     20  CA  VAL A   3       5.668   7.564  51.053  0.00  0.00    +0.137 C 
BRANCH  20  21
ATOM     21  CB  VAL A   3       4.751   6.373  50.702  0.00  0.00    +0.026 C 
ATOM     22  CG2 VAL A   3       3.312   6.844  50.441  0.00  0.00    +0.002 C 
ATOM     23  CG1 VAL A   3       5.339   5.568  49.498  0.00  0.00    +0.002 C 
ENDBRANCH  20  21
BRANCH  20  24
ATOM     24  C   VAL A   3       5.075   8.433  52.192  0.00  0.00    +0.227 C 
ATOM     25  O   VAL A   3       4.977   8.011  53.348  0.00  0.00    -0.286 OA
ENDBRANCH  20  24
ENDBRANCH  18  20
ENDBRANCH  15  16
ENDBRANCH   2  15
TORSDOF 9
REMARK  Name = ../refined-set-2016/3mof/3mof_pocket.pdb
REMARK  135 active torsions:
REMARK  status: ('A' for Active; 'I' for Inactive)
REMARK    1  A    between atoms: _1  and  _3
REMARK    2  A    between atoms: _3  and  _4
REMARK    3  A    between atoms: _7  and  _9
REMARK    4  A    between atoms: _9  and  _10
REMARK    5  A    between atoms: _9  and  _12
REMARK    6  A    between atoms: _12  and  _13
REMARK    7  A    between atoms: _13  and  _14
REMARK    8  A    between atoms: _14  and  _15
REMARK    9  A    between atoms: _24  and  _26
REMARK   10  A    between atoms: _26  and  _27
REMARK   11  A    between atoms: _26  and  _29
REMARK   12  A    between atoms: _29  and  _30
REMARK   13  A    between atoms: _30  and  _31
REMARK   14  A    between atoms: _34  and  _36
REMARK   15  A    between atoms: _36  and  _37
REMARK   16  A    between atoms: _36  and  _39
REMARK   17  A    between atoms: _39  and  _40
REMARK   18  A    between atoms: _45  and  _46
REMARK   19  A    between atoms: _48  and  _50
REMARK   20  A    between atoms: _50  and  _51
REMARK   21  A    between atoms: _53  and  _55
REMARK   22  A    between atoms: _55  and  _56
REMARK   23  A    between atoms: _58  and  _60
REMARK   24  A    between atoms: _60  and  _61
REMARK   25  A    between atoms: _60  and  _63
REMARK   26  A    between atoms: _63  and  _64
REMARK   27  A    between atoms: _69  and  _71
REMARK   28  A    between atoms: _71  and  _72
REMARK   29  A    between atoms: _71  and  _74
REMARK   30  A    between atoms: _74  and  _75
REMARK   31  A    between atoms: _75  and  _76
REMARK   32  A    between atoms: _76  and  _77
REMARK   33  A    between atoms: _77  and  _78
REMARK   34  A    between atoms: _82  and  _84
REMARK   35  A    between atoms: _84  and  _85
REMARK   36  A    between atoms: _84  and  _87
REMARK   37  A    between atoms: _87  and  _88
REMARK   38  A    between atoms: _88  and  _89
REMARK   39  A    between atoms: _89  and  _90
REMARK   40  A    between atoms: _90  and  _91
REMARK   41  A    between atoms: _95  and  _97
REMARK   42  A    between atoms: _97  and  _98
REMARK   43  A    between atoms: _97  and  _100
REMARK   44  A    between atoms: _100  and  _101
REMARK   45  A    between atoms: _104  and  _106
REMARK   46  A    between atoms: _106  and  _107
REMARK   47  A    between atoms: _106  and  _109
REMARK   48  A    between atoms: _109  and  _110
REMARK   49  A    between atoms: _110  and  _111
REMARK   50  A    between atoms: _111  and  _112
REMARK   51  A    between atoms: _121  and  _123
REMARK   52  A    between atoms: _123  and  _124
REMARK   53  A    between atoms: _123  and  _126
REMARK   54  A    between atoms: _126  and  _127
REMARK   55  A    between atoms: _131  and  MN_336
REMARK   56  A    between atoms: _132  and  _134
REMARK   57  A    between atoms: _134  and  _135
REMARK   58  A    between atoms: _134  and  _137
REMARK   59  A    between atoms: _137  and  _138
REMARK   60  A    between atoms: _145  and  _146
REMARK   61  A    between atoms: _151  and  _153
REMARK   62  A    between atoms: _153  and  _154
REMARK   63  A    between atoms: _153  and  _156
REMARK   64  A    between atoms: _156  and  _157
REMARK   65  A    between atoms: _159  and  _161
REMARK   66  A    between atoms: _161  and  _162
REMARK   67  A    between atoms: _165  and  _167
REMARK   68  A    between atoms: _167  and  _168
REMARK   69  A    between atoms: _167  and  _170
REMARK   70  A    between atoms: _172  and  _174
REMARK   71  A    between atoms: _174  and  _175
REMARK   72  A    between atoms: _174  and  _177
REMARK   73  A    between atoms: _177  and  _178
REMARK   74  A    between atoms: _178  and  _179
REMARK   75  A    between atoms: _179  and  _180
REMARK   76  A    between atoms: _180  and  _181
REMARK   77  A    between atoms: _185  and  _187
REMARK   78  A    between atoms: _187  and  _188
REMARK   79  A    between atoms: _187  and  _190
REMARK   80  A    between atoms: _190  and  _191
REMARK   81  A    between atoms: _194  and  _196
REMARK   82  A    between atoms: _196  and  _197
REMARK   83  A    between atoms: _196  and  _199
REMARK   84  A    between atoms: _199  and  _200
REMARK   85  A    between atoms: _203  and  _205
REMARK   86  A    between atoms: _205  and  _206
REMARK   87  A    between atoms: _205  and  _208
REMARK   88  A    between atoms: _208  and  _209
REMARK   89  A    between atoms: _209  and  _210
REMARK   90  A    between atoms: _210  and  MN_336
REMARK   91  A    between atoms: _212  and  _214
REMARK   92  A    between atoms: _214  and  _215
REMARK   93  A    between atoms: _214  and  _217
REMARK   94  A    between atoms: _217  and  _218
REMARK   95  A    between atoms: _221  and  _223
REMARK   96  A    between atoms: _223  and  _224
REMARK   97  A    between atoms: _223  and  _226
REMARK   98  A    between atoms: _226  and  _227
REMARK   99  A    between atoms: _227  and  _228
REMARK  100  A    between atoms: _231  and  _233
REMARK  101  A    between atoms: _233  and  _234
REMARK  102  A    between atoms: _233  and  _236
REMARK  103  A    between atoms: _236  and  _237
REMARK  104  A    between atoms: _243  and  _245
REMARK  105  A    between atoms: _245  and  _246
REMARK  106  A    between atoms: _248  and  _250
REMARK  107  A    between atoms: _250  and  _251
REMARK  108  A    between atoms: _250  and  _253
REMARK  109  A    between atoms: _256  and  _258
REMARK  110  A    between atoms: _258  and  _259
REMARK  111  A    between atoms: _258  and  _261
REMARK  112  A    between atoms: _261  and  _262
REMARK  113  A    between atoms: _267  and  _269
REMARK  114  A    between atoms: _269  and  _270
REMARK  115  A    between atoms: _269  and  _272
REMARK  116  A    between atoms: _272  and  _273
REMARK  117  A    between atoms: _273  and  _274
REMARK  118  A    between atoms: _274  and  _275
REMARK  119  A    between atoms: _284  and  _286
REMARK  120  A    between atoms: _286  and  _287
REMARK  121  A    between atoms: _286  and  _289
REMARK  122  A    between atoms: _289  and  _290
REMARK  123  A    between atoms: _293  and  _295
REMARK  124  A    between atoms: _295  and  _296
REMARK  125  A    between atoms: _299  and  _301
REMARK  126  A    between atoms: _301  and  _302
REMARK  127  A    between atoms: _304  and  _306
REMARK  128  A    between atoms: _306  and  _307
REMARK  129  A    between atoms: _310  and  _312
REMARK  130  A    between atoms: _312  and  _313
REMARK  131  A    between atoms: _317  and  _318
REMARK  132  A    between atoms: _323  and  _325
REMARK  133  A    between atoms: _325  and  _326
REMARK  134  A    between atoms: _325  and  _328
REMARK  135  A    between atoms: _328  and  _329
REMARK                            x       y       z     vdW  Elec       q    Type
REMARK                         _______ _______ _______ _____ _____    ______ ____
ROOT
ATOM      1  CB  ASN A   1       3.852   8.175  44.314  0.00  0.00    +0.110 C 
ENDROOT
BRANCH   1   2
ATOM      2  CG  ASN A   1       5.199   7.382  44.514  0.00  0.00    +0.221 C 
ATOM      3  OD1 ASN A   1       5.335   6.598  45.443  0.00  0.00    -0.275 OA
ATOM      4  ND2 ASN A   1       6.178   7.620  43.632  0.00  0.00    -0.329 N 
ATOM      5 HD21 ASN A   1       7.091   7.131  43.724  0.00  0.00    +0.145 HD
ATOM      6 HD22 ASN A   1       6.025   8.294  42.855  0.00  0.00    +0.145 HD
ENDBRANCH   1   2
BRANCH   1   7
ATOM      7  CA  ASN A   1       3.323   8.812  45.619  0.00  0.00    +0.142 C 
BRANCH   7   8
ATOM      8  N   ASN A   1       1.937   9.320  45.457  0.00  0.00    -0.239 NA
ATOM      9  H   ASN A   1       1.711   9.906  44.628  0.00  0.00    +0.142 HD
ENDBRANCH   7   8
BRANCH   7  10
ATOM     10  C   ASN A   1       4.319   9.890  46.105  0.00  0.00    +0.225 C 
ATOM     11  O   ASN A   1       5.555   9.761  45.891  0.00  0.00    -0.287 OA
ENDBRANCH   7  10
ENDBRANCH   1   7
TORSDOF 4
REMARK  Name = ../refined-set-2016/3mof/3mof_pocket.pdb
REMARK  135 active torsions:
REMARK  status: ('A' for Active; 'I' for Inactive)
REMARK    1  A    between atoms: _1  and  _3
REMARK    2  A    between atoms: _3  and  _4
REMARK    3  A    between atoms: _7  and  _9
REMARK    4  A    between atoms: _9  and  _10
REMARK    5  A    between atoms: _9  and  _12
REMARK    6  A    between atoms: _12  and  _13
REMARK    7  A    between atoms: _13  and  _14
REMARK    8  A    between atoms: _14  and  _15
REMARK    9  A    between atoms: _24  and  _26
REMARK   10  A    between atoms: _26  and  _27
REMARK   11  A    between atoms: _26  and  _29
REMARK   12  A    between atoms: _29  and  _30
REMARK   13  A    between atoms: _30  and  _31
REMARK   14  A    between atoms: _34  and  _36
REMARK   15  A    between atoms: _36  and  _37
REMARK   16  A    between atoms: _36  and  _39
REMARK   17  A    between atoms: _39  and  _40
REMARK   18  A    between atoms: _45  and  _46
REMARK   19  A    between atoms: _48  and  _50
REMARK   20  A    between atoms: _50  and  _51
REMARK   21  A    between atoms: _53  and  _55
REMARK   22  A    between atoms: _55  and  _56
REMARK   23  A    between atoms: _58  and  _60
REMARK   24  A    between atoms: _60  and  _61
REMARK   25  A    between atoms: _60  and  _63
REMARK   26  A    between atoms: _63  and  _64
REMARK   27  A    between atoms: _69  and  _71
REMARK   28  A    between atoms: _71  and  _72
REMARK   29  A    between atoms: _71  and  _74
REMARK   30  A    between atoms: _74  and  _75
REMARK   31  A    between atoms: _75  and  _76
REMARK   32  A    between atoms: _76  and  _77
REMARK   33  A    between atoms: _77  and  _78
REMARK   34  A    between atoms: _82  and  _84
REMARK   35  A    between atoms: _84  and  _85
REMARK   36  A    between atoms: _84  and  _87
REMARK   37  A    between atoms: _87  and  _88
REMARK   38  A    between atoms: _88  and  _89
REMARK   39  A    between atoms: _89  and  _90
REMARK   40  A    between atoms: _90  and  _91
REMARK   41  A    between atoms: _95  and  _97
REMARK   42  A    between atoms: _97  and  _98
REMARK   43  A    between atoms: _97  and  _100
REMARK   44  A    between atoms: _100  and  _101
REMARK   45  A    between atoms: _104  and  _106
REMARK   46  A    between atoms: _106  and  _107
REMARK   47  A    between atoms: _106  and  _109
REMARK   48  A    between atoms: _109  and  _110
REMARK   49  A    between atoms: _110  and  _111
REMARK   50  A    between atoms: _111  and  _112
REMARK   51  A    between atoms: _121  and  _123
REMARK   52  A    between atoms: _123  and  _124
REMARK   53  A    between atoms: _123  and  _126
REMARK   54  A    between atoms: _126  and  _127
REMARK   55  A    between atoms: _131  and  MN_336
REMARK   56  A    between atoms: _132  and  _134
REMARK   57  A    between atoms: _134  and  _135
REMARK   58  A    between atoms: _134  and  _137
REMARK   59  A    between atoms: _137  and  _138
REMARK   60  A    between atoms: _145  and  _146
REMARK   61  A    between atoms: _151  and  _153
REMARK   62  A    between atoms: _153  and  _154
REMARK   63  A    between atoms: _153  and  _156
REMARK   64  A    between atoms: _156  and  _157
REMARK   65  A    between atoms: _159  and  _161
REMARK   66  A    between atoms: _161  and  _162
REMARK   67  A    between atoms: _165  and  _167
REMARK   68  A    between atoms: _167  and  _168
REMARK   69  A    between atoms: _167  and  _170
REMARK   70  A    between atoms: _172  and  _174
REMARK   71  A    between atoms: _174  and  _175
REMARK   72  A    between atoms: _174  and  _177
REMARK   73  A    between atoms: _177  and  _178
REMARK   74  A    between atoms: _178  and  _179
REMARK   75  A    between atoms: _179  and  _180
REMARK   76  A    between atoms: _180  and  _181
REMARK   77  A    between atoms: _185  and  _187
REMARK   78  A    between atoms: _187  and  _188
REMARK   79  A    between atoms: _187  and  _190
REMARK   80  A    between atoms: _190  and  _191
REMARK   81  A    between atoms: _194  and  _196
REMARK   82  A    between atoms: _196  and  _197
REMARK   83  A    between atoms: _196  and  _199
REMARK   84  A    between atoms: _199  and  _200
REMARK   85  A    between atoms: _203  and  _205
REMARK   86  A    between atoms: _205  and  _206
REMARK   87  A    between atoms: _205  and  _208
REMARK   88  A    between atoms: _208  and  _209
REMARK   89  A    between atoms: _209  and  _210
REMARK   90  A    between atoms: _210  and  MN_336
REMARK   91  A    between atoms: _212  and  _214
REMARK   92  A    between atoms: _214  and  _215
REMARK   93  A    between atoms: _214  and  _217
REMARK   94  A    between atoms: _217  and  _218
REMARK   95  A    between atoms: _221  and  _223
REMARK   96  A    between atoms: _223  and  _224
REMARK   97  A    between atoms: _223  and  _226
REMARK   98  A    between atoms: _226  and  _227
REMARK   99  A    between atoms: _227  and  _228
REMARK  100  A    between atoms: _231  and  _233
REMARK  101  A    between atoms: _233  and  _234
REMARK  102  A    between atoms: _233  and  _236
REMARK  103  A    between atoms: _236  and  _237
REMARK  104  A    between atoms: _243  and  _245
REMARK  105  A    between atoms: _245  and  _246
REMARK  106  A    between atoms: _248  and  _250
REMARK  107  A    between atoms: _250  and  _251
REMARK  108  A    between atoms: _250  and  _253
REMARK  109  A    between atoms: _256  and  _258
REMARK  110  A    between atoms: _258  and  _259
REMARK  111  A    between atoms: _258  and  _261
REMARK  112  A    between atoms: _261  and  _262
REMARK  113  A    between atoms: _267  and  _269
REMARK  114  A    between atoms: _269  and  _270
REMARK  115  A    between atoms: _269  and  _272
REMARK  116  A    between atoms: _272  and  _273
REMARK  117  A    between atoms: _273  and  _274
REMARK  118  A    between atoms: _274  and  _275
REMARK  119  A    between atoms: _284  and  _286
REMARK  120  A    between atoms: _286  and  _287
REMARK  121  A    between atoms: _286  and  _289
REMARK  122  A    between atoms: _289  and  _290
REMARK  123  A    between atoms: _293  and  _295
REMARK  124  A    between atoms: _295  and  _296
REMARK  125  A    between atoms: _299  and  _301
REMARK  126  A    between atoms: _301  and  _302
REMARK  127  A    between atoms: _304  and  _306
REMARK  128  A    between atoms: _306  and  _307
REMARK  129  A    between atoms: _310  and  _312
REMARK  130  A    between atoms: _312  and  _313
REMARK  131  A    between atoms: _317  and  _318
REMARK  132  A    between atoms: _323  and  _325
REMARK  133  A    between atoms: _325  and  _326
REMARK  134  A    between atoms: _325  and  _328
REMARK  135  A    between atoms: _328  and  _329
REMARK                            x       y       z     vdW  Elec       q    Type
REMARK                         _______ _______ _______ _____ _____    ______ ____
ROOT
ATOM      1  NE  ARG A   1       7.992   7.159  47.302  0.00  0.00    -0.265 N 
ATOM      2  CZ  ARG A   1       8.017   5.857  47.591  0.00  0.00    +0.342 C 
ATOM      3  NH2 ARG A   1       8.690   5.412  48.667  0.00  0.00    -0.292 N 
ATOM      4 HH21 ARG A   1       9.195   6.084  49.279  0.00  0.00    +0.255 HD
ATOM      5 HH22 ARG A   1       8.706   4.396  48.887  0.00  0.00    +0.255 HD
ATOM      6  NH1 ARG A   1       7.410   4.987  46.795  0.00  0.00    -0.292 N 
ATOM      7 HH11 ARG A   1       7.431   3.972  47.022  0.00  0.00    +0.255 HD
ATOM      8 HH12 ARG A   1       6.913   5.319  45.944  0.00  0.00    +0.255 HD
ATOM      9  HE  ARG A   1       7.526   7.456  46.421  0.00  0.00    +0.259 HD
ENDROOT
BRANCH   1  10
ATOM     10  CD  ARG A   1       8.590   8.210  48.164  0.00  0.00    +0.174 C 
BRANCH  10  11
ATOM     11  CG  ARG A   1       8.428   9.591  47.565  0.00  0.00    +0.045 C 
BRANCH  11  12
ATOM     12  CB  ARG A   1       8.861  10.735  48.506  0.00  0.00    +0.029 C 
BRANCH  12  13
ATOM     13  CA  ARG A   1       7.743  11.293  49.439  0.00  0.00    +0.133 C 
BRANCH  13  14
ATOM     14  N   ARG A   1       6.696  11.911  48.611  0.00  0.00    -0.239 NA
ATOM     15  H   ARG A   1       6.888  12.825  48.153  0.00  0.00    +0.142 HD
ENDBRANCH  13  14
BRANCH  13  16
ATOM     16  C   ARG A   1       8.396  12.263  50.408  0.00  0.00    +0.224 C 
ATOM     17  O   ARG A   1       8.454  13.450  50.157  0.00  0.00    -0.287 OA
ENDBRANCH  13  16
ENDBRANCH  12  13
ENDBRANCH  11  12
ENDBRANCH  10  11
ENDBRANCH   1  10
TORSDOF 6
REMARK  Name = ../refined-set-2016/3mof/3mof_pocket.pdb
REMARK  135 active torsions:
REMARK  status: ('A' for Active; 'I' for Inactive)
REMARK    1  A    between atoms: _1  and  _3
REMARK    2  A    between atoms: _3  and  _4
REMARK    3  A    between atoms: _7  and  _9
REMARK    4  A    between atoms: _9  and  _10
REMARK    5  A    between atoms: _9  and  _12
REMARK    6  A    between atoms: _12  and  _13
REMARK    7  A    between atoms: _13  and  _14
REMARK    8  A    between atoms: _14  and  _15
REMARK    9  A    between atoms: _24  and  _26
REMARK   10  A    between atoms: _26  and  _27
REMARK   11  A    between atoms: _26  and  _29
REMARK   12  A    between atoms: _29  and  _30
REMARK   13  A    between atoms: _30  and  _31
REMARK   14  A    between atoms: _34  and  _36
REMARK   15  A    between atoms: _36  and  _37
REMARK   16  A    between atoms: _36  and  _39
REMARK   17  A    between atoms: _39  and  _40
REMARK   18  A    between atoms: _45  and  _46
REMARK   19  A    between atoms: _48  and  _50
REMARK   20  A    between atoms: _50  and  _51
REMARK   21  A    between atoms: _53  and  _55
REMARK   22  A    between atoms: _55  and  _56
REMARK   23  A    between atoms: _58  and  _60
REMARK   24  A    between atoms: _60  and  _61
REMARK   25  A    between atoms: _60  and  _63
REMARK   26  A    between atoms: _63  and  _64
REMARK   27  A    between atoms: _69  and  _71
REMARK   28  A    between atoms: _71  and  _72
REMARK   29  A    between atoms: _71  and  _74
REMARK   30  A    between atoms: _74  and  _75
REMARK   31  A    between atoms: _75  and  _76
REMARK   32  A    between atoms: _76  and  _77
REMARK   33  A    between atoms: _77  and  _78
REMARK   34  A    between atoms: _82  and  _84
REMARK   35  A    between atoms: _84  and  _85
REMARK   36  A    between atoms: _84  and  _87
REMARK   37  A    between atoms: _87  and  _88
REMARK   38  A    between atoms: _88  and  _89
REMARK   39  A    between atoms: _89  and  _90
REMARK   40  A    between atoms: _90  and  _91
REMARK   41  A    between atoms: _95  and  _97
REMARK   42  A    between atoms: _97  and  _98
REMARK   43  A    between atoms: _97  and  _100
REMARK   44  A    between atoms: _100  and  _101
REMARK   45  A    between atoms: _104  and  _106
REMARK   46  A    between atoms: _106  and  _107
REMARK   47  A    between atoms: _106  and  _109
REMARK   48  A    between atoms: _109  and  _110
REMARK   49  A    between atoms: _110  and  _111
REMARK   50  A    between atoms: _111  and  _112
REMARK   51  A    between atoms: _121  and  _123
REMARK   52  A    between atoms: _123  and  _124
REMARK   53  A    between atoms: _123  and  _126
REMARK   54  A    between atoms: _126  and  _127
REMARK   55  A    between atoms: _131  and  MN_336
REMARK   56  A    between atoms: _132  and  _134
REMARK   57  A    between atoms: _134  and  _135
REMARK   58  A    between atoms: _134  and  _137
REMARK   59  A    between atoms: _137  and  _138
REMARK   60  A    between atoms: _145  and  _146
REMARK   61  A    between atoms: _151  and  _153
REMARK   62  A    between atoms: _153  and  _154
REMARK   63  A    between atoms: _153  and  _156
REMARK   64  A    between atoms: _156  and  _157
REMARK   65  A    between atoms: _159  and  _161
REMARK   66  A    between atoms: _161  and  _162
REMARK   67  A    between atoms: _165  and  _167
REMARK   68  A    between atoms: _167  and  _168
REMARK   69  A    between atoms: _167  and  _170
REMARK   70  A    between atoms: _172  and  _174
REMARK   71  A    between atoms: _174  and  _175
REMARK   72  A    between atoms: _174  and  _177
REMARK   73  A    between atoms: _177  and  _178
REMARK   74  A    between atoms: _178  and  _179
REMARK   75  A    between atoms: _179  and  _180
REMARK   76  A    between atoms: _180  and  _181
REMARK   77  A    between atoms: _185  and  _187
REMARK   78  A    between atoms: _187  and  _188
REMARK   79  A    between atoms: _187  and  _190
REMARK   80  A    between atoms: _190  and  _191
REMARK   81  A    between atoms: _194  and  _196
REMARK   82  A    between atoms: _196  and  _197
REMARK   83  A    between atoms: _196  and  _199
REMARK   84  A    between atoms: _199  and  _200
REMARK   85  A    between atoms: _203  and  _205
REMARK   86  A    between atoms: _205  and  _206
REMARK   87  A    between atoms: _205  and  _208
REMARK   88  A    between atoms: _208  and  _209
REMARK   89  A    between atoms: _209  and  _210
REMARK   90  A    between atoms: _210  and  MN_336
REMARK   91  A    between atoms: _212  and  _214
REMARK   92  A    between atoms: _214  and  _215
REMARK   93  A    between atoms: _214  and  _217
REMARK   94  A    between atoms: _217  and  _218
REMARK   95  A    between atoms: _221  and  _223
REMARK   96  A    between atoms: _223  and  _224
REMARK   97  A    between atoms: _223  and  _226
REMARK   98  A    between atoms: _226  and  _227
REMARK   99  A    between atoms: _227  and  _228
REMARK  100  A    between atoms: _231  and  _233
REMARK  101  A    between atoms: _233  and  _234
REMARK  102  A    between atoms: _233  and  _236
REMARK  103  A    between atoms: _236  and  _237
REMARK  104  A    between atoms: _243  and  _245
REMARK  105  A    between atoms: _245  and  _246
REMARK  106  A    between atoms: _248  and  _250
REMARK  107  A    between atoms: _250  and  _251
REMARK  108  A    between atoms: _250  and  _253
REMARK  109  A    between atoms: _256  and  _258
REMARK  110  A    between atoms: _258  and  _259
REMARK  111  A    between atoms: _258  and  _261
REMARK  112  A    between atoms: _261  and  _262
REMARK  113  A    between atoms: _267  and  _269
REMARK  114  A    between atoms: _269  and  _270
REMARK  115  A    between atoms: _269  and  _272
REMARK  116  A    between atoms: _272  and  _273
REMARK  117  A    between atoms: _273  and  _274
REMARK  118  A    between atoms: _274  and  _275
REMARK  119  A    between atoms: _284  and  _286
REMARK  120  A    between atoms: _286  and  _287
REMARK  121  A    between atoms: _286  and  _289
REMARK  122  A    between atoms: _289  and  _290
REMARK  123  A    between atoms: _293  and  _295
REMARK  124  A    between atoms: _295  and  _296
REMARK  125  A    between atoms: _299  and  _301
REMARK  126  A    between atoms: _301  and  _302
REMARK  127  A    between atoms: _304  and  _306
REMARK  128  A    between atoms: _306  and  _307
REMARK  129  A    between atoms: _310  and  _312
REMARK  130  A    between atoms: _312  and  _313
REMARK  131  A    between atoms: _317  and  _318
REMARK  132  A    between atoms: _323  and  _325
REMARK  133  A    between atoms: _325  and  _326
REMARK  134  A    between atoms: _325  and  _328
REMARK  135  A    between atoms: _328  and  _329
REMARK                            x       y       z     vdW  Elec       q    Type
REMARK                         _______ _______ _______ _____ _____    ______ ____
ROOT
ATOM      1  CA  ALA A   2       0.940   4.328  43.196  0.00  0.00    +0.149 C 
ATOM      2  CB  ALA A   2       0.268   5.582  43.787  0.00  0.00    +0.031 C 
ENDROOT
BRANCH   1   4
ATOM      3  C   THR A   1       0.299   1.993  43.330  0.00  0.00    +0.241 C 
ATOM      4  N   ALA A   2       0.586   3.131  43.959  0.00  0.00    -0.297 N 
ATOM      5  H   ALA A   2       0.558   3.169  44.998  0.00  0.00    +0.150 HD
ATOM      6  O   THR A   1       0.429   1.841  42.097  0.00  0.00    -0.274 OA
BRANCH   3   7
ATOM      7  CA  THR A   1      -0.198   0.840  44.196  0.00  0.00    +0.172 C 
BRANCH   7   8
ATOM      8  N   THR A   1      -0.370  -0.335  43.350  0.00  0.00    -0.236 NA
ATOM      9  H   THR A   1       0.438  -0.678  42.792  0.00  0.00    +0.142 HD
ENDBRANCH   7   8
BRANCH   7  10
ATOM     10  CB  THR A   1       0.834   0.591  45.310  0.00  0.00    +0.135 C 
ATOM     11  CG2 THR A   1       0.450  -0.617  46.194  0.00  0.00    +0.034 C 
BRANCH  10  12
ATOM     12  OG1 THR A   1       2.127   0.389  44.718  0.00  0.00    -0.383 OA
ATOM     13  HG1 THR A   1       2.794   0.228  45.432  0.00  0.00    +0.210 HD
ENDBRANCH  10  12
ENDBRANCH   7  10
ENDBRANCH   3   7
ENDBRANCH   1   4
BRANCH   1  14
ATOM     14  C   ALA A   2       2.458   4.516  43.004  0.00  0.00    +0.241 C 
ATOM     15  N   GLY A   3       3.232   3.504  43.390  0.00  0.00    -0.295 N 
ATOM     16  H   GLY A   3       2.802   2.633  43.762  0.00  0.00    +0.150 HD
ATOM     17  O   ALA A   2       2.887   5.527  42.419  0.00  0.00    -0.273 OA
BRANCH  15  18
ATOM     18  CA  GLY A   3       4.678   3.615  43.292  0.00  0.00    +0.176 C 
BRANCH  18  19
ATOM     19  C   GLY A   3       5.243   3.705  41.885  0.00  0.00    +0.243 C 
ATOM     20  O   GLY A   3       6.329   4.218  41.656  0.00  0.00    -0.273 OA
ATOM     21  N   ALA A   4       4.455   3.199  40.945  0.00  0.00    -0.298 N 
ATOM     22  H   ALA A   4       3.556   2.760  41.228  0.00  0.00    +0.150 HD
BRANCH  21  23
ATOM     23  CA  ALA A   4       4.800   3.236  39.549  0.00  0.00    +0.137 C 
ATOM     24  CB  ALA A   4       5.333   1.936  39.121  0.00  0.00    +0.030 C 
BRANCH  23  25
ATOM     25  C   ALA A   4       3.606   3.647  38.682  0.00  0.00    +0.227 C 
ATOM     26  O   ALA A   4       2.802   4.435  39.084  0.00  0.00    -0.286 OA
ENDBRANCH  23  25
ENDBRANCH  21  23
ENDBRANCH  18  19
ENDBRANCH  15  18
ENDBRANCH   1  14
TORSDOF 10
REMARK  Name = ../refined-set-2016/3mof/3mof_pocket.pdb
REMARK  135 active torsions:
REMARK  status: ('A' for Active; 'I' for Inactive)
REMARK    1  A    between atoms: _1  and  _3
REMARK    2  A    between atoms: _3  and  _4
REMARK    3  A    between atoms: _7  and  _9
REMARK    4  A    between atoms: _9  and  _10
REMARK    5  A    between atoms: _9  and  _12
REMARK    6  A    between atoms: _12  and  _13
REMARK    7  A    between atoms: _13  and  _14
REMARK    8  A    between atoms: _14  and  _15
REMARK    9  A    between atoms: _24  and  _26
REMARK   10  A    between atoms: _26  and  _27
REMARK   11  A    between atoms: _26  and  _29
REMARK   12  A    between atoms: _29  and  _30
REMARK   13  A    between atoms: _30  and  _31
REMARK   14  A    between atoms: _34  and  _36
REMARK   15  A    between atoms: _36  and  _37
REMARK   16  A    between atoms: _36  and  _39
REMARK   17  A    between atoms: _39  and  _40
REMARK   18  A    between atoms: _45  and  _46
REMARK   19  A    between atoms: _48  and  _50
REMARK   20  A    between atoms: _50  and  _51
REMARK   21  A    between atoms: _53  and  _55
REMARK   22  A    between atoms: _55  and  _56
REMARK   23  A    between atoms: _58  and  _60
REMARK   24  A    between atoms: _60  and  _61
REMARK   25  A    between atoms: _60  and  _63
REMARK   26  A    between atoms: _63  and  _64
REMARK   27  A    between atoms: _69  and  _71
REMARK   28  A    between atoms: _71  and  _72
REMARK   29  A    between atoms: _71  and  _74
REMARK   30  A    between atoms: _74  and  _75
REMARK   31  A    between atoms: _75  and  _76
REMARK   32  A    between atoms: _76  and  _77
REMARK   33  A    between atoms: _77  and  _78
REMARK   34  A    between atoms: _82  and  _84
REMARK   35  A    between atoms: _84  and  _85
REMARK   36  A    between atoms: _84  and  _87
REMARK   37  A    between atoms: _87  and  _88
REMARK   38  A    between atoms: _88  and  _89
REMARK   39  A    between atoms: _89  and  _90
REMARK   40  A    between atoms: _90  and  _91
REMARK   41  A    between atoms: _95  and  _97
REMARK   42  A    between atoms: _97  and  _98
REMARK   43  A    between atoms: _97  and  _100
REMARK   44  A    between atoms: _100  and  _101
REMARK   45  A    between atoms: _104  and  _106
REMARK   46  A    between atoms: _106  and  _107
REMARK   47  A    between atoms: _106  and  _109
REMARK   48  A    between atoms: _109  and  _110
REMARK   49  A    between atoms: _110  and  _111
REMARK   50  A    between atoms: _111  and  _112
REMARK   51  A    between atoms: _121  and  _123
REMARK   52  A    between atoms: _123  and  _124
REMARK   53  A    between atoms: _123  and  _126
REMARK   54  A    between atoms: _126  and  _127
REMARK   55  A    between atoms: _131  and  MN_336
REMARK   56  A    between atoms: _132  and  _134
REMARK   57  A    between atoms: _134  and  _135
REMARK   58  A    between atoms: _134  and  _137
REMARK   59  A    between atoms: _137  and  _138
REMARK   60  A    between atoms: _145  and  _146
REMARK   61  A    between atoms: _151  and  _153
REMARK   62  A    between atoms: _153  and  _154
REMARK   63  A    between atoms: _153  and  _156
REMARK   64  A    between atoms: _156  and  _157
REMARK   65  A    between atoms: _159  and  _161
REMARK   66  A    between atoms: _161  and  _162
REMARK   67  A    between atoms: _165  and  _167
REMARK   68  A    between atoms: _167  and  _168
REMARK   69  A    between atoms: _167  and  _170
REMARK   70  A    between atoms: _172  and  _174
REMARK   71  A    between atoms: _174  and  _175
REMARK   72  A    between atoms: _174  and  _177
REMARK   73  A    between atoms: _177  and  _178
REMARK   74  A    between atoms: _178  and  _179
REMARK   75  A    between atoms: _179  and  _180
REMARK   76  A    between atoms: _180  and  _181
REMARK   77  A    between atoms: _185  and  _187
REMARK   78  A    between atoms: _187  and  _188
REMARK   79  A    between atoms: _187  and  _190
REMARK   80  A    between atoms: _190  and  _191
REMARK   81  A    between atoms: _194  and  _196
REMARK   82  A    between atoms: _196  and  _197
REMARK   83  A    between atoms: _196  and  _199
REMARK   84  A    between atoms: _199  and  _200
REMARK   85  A    between atoms: _203  and  _205
REMARK   86  A    between atoms: _205  and  _206
REMARK   87  A    between atoms: _205  and  _208
REMARK   88  A    between atoms: _208  and  _209
REMARK   89  A    between atoms: _209  and  _210
REMARK   90  A    between atoms: _210  and  MN_336
REMARK   91  A    between atoms: _212  and  _214
REMARK   92  A    between atoms: _214  and  _215
REMARK   93  A    between atoms: _214  and  _217
REMARK   94  A    between atoms: _217  and  _218
REMARK   95  A    between atoms: _221  and  _223
REMARK   96  A    between atoms: _223  and  _224
REMARK   97  A    between atoms: _223  and  _226
REMARK   98  A    between atoms: _226  and  _227
REMARK   99  A    between atoms: _227  and  _228
REMARK  100  A    between atoms: _231  and  _233
REMARK  101  A    between atoms: _233  and  _234
REMARK  102  A    between atoms: _233  and  _236
REMARK  103  A    between atoms: _236  and  _237
REMARK  104  A    between atoms: _243  and  _245
REMARK  105  A    between atoms: _245  and  _246
REMARK  106  A    between atoms: _248  and  _250
REMARK  107  A    between atoms: _250  and  _251
REMARK  108  A    between atoms: _250  and  _253
REMARK  109  A    between atoms: _256  and  _258
REMARK  110  A    between atoms: _258  and  _259
REMARK  111  A    between atoms: _258  and  _261
REMARK  112  A    between atoms: _261  and  _262
REMARK  113  A    between atoms: _267  and  _269
REMARK  114  A    between atoms: _269  and  _270
REMARK  115  A    between atoms: _269  and  _272
REMARK  116  A    between atoms: _272  and  _273
REMARK  117  A    between atoms: _273  and  _274
REMARK  118  A    between atoms: _274  and  _275
REMARK  119  A    between atoms: _284  and  _286
REMARK  120  A    between atoms: _286  and  _287
REMARK  121  A    between atoms: _286  and  _289
REMARK  122  A    between atoms: _289  and  _290
REMARK  123  A    between atoms: _293  and  _295
REMARK  124  A    between atoms: _295  and  _296
REMARK  125  A    between atoms: _299  and  _301
REMARK  126  A    between atoms: _301  and  _302
REMARK  127  A    between atoms: _304  and  _306
REMARK  128  A    between atoms: _306  and  _307
REMARK  129  A    between atoms: _310  and  _312
REMARK  130  A    between atoms: _312  and  _313
REMARK  131  A    between atoms: _317  and  _318
REMARK  132  A    between atoms: _323  and  _325
REMARK  133  A    between atoms: _325  and  _326
REMARK  134  A    between atoms: _325  and  _328
REMARK  135  A    between atoms: _328  and  _329
REMARK                            x       y       z     vdW  Elec       q    Type
REMARK                         _______ _______ _______ _____ _____    ______ ____
ROOT
ATOM      1  CA  ALA A   1       8.345  -7.817  45.973  0.00  0.00    +0.133 C 
ATOM      2  CB  ALA A   1       8.465  -7.190  47.373  0.00  0.00    +0.027 C 
ENDROOT
BRANCH   1   3
ATOM      3  N   ALA A   1       8.473  -9.274  46.022  0.00  0.00    -0.239 NA
ATOM      4  H   ALA A   1       7.661  -9.850  45.720  0.00  0.00    +0.142 HD
ENDBRANCH   1   3
BRANCH   1   5
ATOM      5  C   ALA A   1       9.360  -7.217  44.986  0.00  0.00    +0.224 C 
ATOM      6  O   ALA A   1       9.641  -6.020  45.002  0.00  0.00    -0.287 OA
ENDBRANCH   1   5
TORSDOF 2
REMARK  Name = ../refined-set-2016/3mof/3mof_pocket.pdb
REMARK  135 active torsions:
REMARK  status: ('A' for Active; 'I' for Inactive)
REMARK    1  A    between atoms: _1  and  _3
REMARK    2  A    between atoms: _3  and  _4
REMARK    3  A    between atoms: _7  and  _9
REMARK    4  A    between atoms: _9  and  _10
REMARK    5  A    between atoms: _9  and  _12
REMARK    6  A    between atoms: _12  and  _13
REMARK    7  A    between atoms: _13  and  _14
REMARK    8  A    between atoms: _14  and  _15
REMARK    9  A    between atoms: _24  and  _26
REMARK   10  A    between atoms: _26  and  _27
REMARK   11  A    between atoms: _26  and  _29
REMARK   12  A    between atoms: _29  and  _30
REMARK   13  A    between atoms: _30  and  _31
REMARK   14  A    between atoms: _34  and  _36
REMARK   15  A    between atoms: _36  and  _37
REMARK   16  A    between atoms: _36  and  _39
REMARK   17  A    between atoms: _39  and  _40
REMARK   18  A    between atoms: _45  and  _46
REMARK   19  A    between atoms: _48  and  _50
REMARK   20  A    between atoms: _50  and  _51
REMARK   21  A    between atoms: _53  and  _55
REMARK   22  A    between atoms: _55  and  _56
REMARK   23  A    between atoms: _58  and  _60
REMARK   24  A    between atoms: _60  and  _61
REMARK   25  A    between atoms: _60  and  _63
REMARK   26  A    between atoms: _63  and  _64
REMARK   27  A    between atoms: _69  and  _71
REMARK   28  A    between atoms: _71  and  _72
REMARK   29  A    between atoms: _71  and  _74
REMARK   30  A    between atoms: _74  and  _75
REMARK   31  A    between atoms: _75  and  _76
REMARK   32  A    between atoms: _76  and  _77
REMARK   33  A    between atoms: _77  and  _78
REMARK   34  A    between atoms: _82  and  _84
REMARK   35  A    between atoms: _84  and  _85
REMARK   36  A    between atoms: _84  and  _87
REMARK   37  A    between atoms: _87  and  _88
REMARK   38  A    between atoms: _88  and  _89
REMARK   39  A    between atoms: _89  and  _90
REMARK   40  A    between atoms: _90  and  _91
REMARK   41  A    between atoms: _95  and  _97
REMARK   42  A    between atoms: _97  and  _98
REMARK   43  A    between atoms: _97  and  _100
REMARK   44  A    between atoms: _100  and  _101
REMARK   45  A    between atoms: _104  and  _106
REMARK   46  A    between atoms: _106  and  _107
REMARK   47  A    between atoms: _106  and  _109
REMARK   48  A    between atoms: _109  and  _110
REMARK   49  A    between atoms: _110  and  _111
REMARK   50  A    between atoms: _111  and  _112
REMARK   51  A    between atoms: _121  and  _123
REMARK   52  A    between atoms: _123  and  _124
REMARK   53  A    between atoms: _123  and  _126
REMARK   54  A    between atoms: _126  and  _127
REMARK   55  A    between atoms: _131  and  MN_336
REMARK   56  A    between atoms: _132  and  _134
REMARK   57  A    between atoms: _134  and  _135
REMARK   58  A    between atoms: _134  and  _137
REMARK   59  A    between atoms: _137  and  _138
REMARK   60  A    between atoms: _145  and  _146
REMARK   61  A    between atoms: _151  and  _153
REMARK   62  A    between atoms: _153  and  _154
REMARK   63  A    between atoms: _153  and  _156
REMARK   64  A    between atoms: _156  and  _157
REMARK   65  A    between atoms: _159  and  _161
REMARK   66  A    between atoms: _161  and  _162
REMARK   67  A    between atoms: _165  and  _167
REMARK   68  A    between atoms: _167  and  _168
REMARK   69  A    between atoms: _167  and  _170
REMARK   70  A    between atoms: _172  and  _174
REMARK   71  A    between atoms: _174  and  _175
REMARK   72  A    between atoms: _174  and  _177
REMARK   73  A    between atoms: _177  and  _178
REMARK   74  A    between atoms: _178  and  _179
REMARK   75  A    between atoms: _179  and  _180
REMARK   76  A    between atoms: _180  and  _181
REMARK   77  A    between atoms: _185  and  _187
REMARK   78  A    between atoms: _187  and  _188
REMARK   79  A    between atoms: _187  and  _190
REMARK   80  A    between atoms: _190  and  _191
REMARK   81  A    between atoms: _194  and  _196
REMARK   82  A    between atoms: _196  and  _197
REMARK   83  A    between atoms: _196  and  _199
REMARK   84  A    between atoms: _199  and  _200
REMARK   85  A    between atoms: _203  and  _205
REMARK   86  A    between atoms: _205  and  _206
REMARK   87  A    between atoms: _205  and  _208
REMARK   88  A    between atoms: _208  and  _209
REMARK   89  A    between atoms: _209  and  _210
REMARK   90  A    between atoms: _210  and  MN_336
REMARK   91  A    between atoms: _212  and  _214
REMARK   92  A    between atoms: _214  and  _215
REMARK   93  A    between atoms: _214  and  _217
REMARK   94  A    between atoms: _217  and  _218
REMARK   95  A    between atoms: _221  and  _223
REMARK   96  A    between atoms: _223  and  _224
REMARK   97  A    between atoms: _223  and  _226
REMARK   98  A    between atoms: _226  and  _227
REMARK   99  A    between atoms: _227  and  _228
REMARK  100  A    between atoms: _231  and  _233
REMARK  101  A    between atoms: _233  and  _234
REMARK  102  A    between atoms: _233  and  _236
REMARK  103  A    between atoms: _236  and  _237
REMARK  104  A    between atoms: _243  and  _245
REMARK  105  A    between atoms: _245  and  _246
REMARK  106  A    between atoms: _248  and  _250
REMARK  107  A    between atoms: _250  and  _251
REMARK  108  A    between atoms: _250  and  _253
REMARK  109  A    between atoms: _256  and  _258
REMARK  110  A    between atoms: _258  and  _259
REMARK  111  A    between atoms: _258  and  _261
REMARK  112  A    between atoms: _261  and  _262
REMARK  113  A    between atoms: _267  and  _269
REMARK  114  A    between atoms: _269  and  _270
REMARK  115  A    between atoms: _269  and  _272
REMARK  116  A    between atoms: _272  and  _273
REMARK  117  A    between atoms: _273  and  _274
REMARK  118  A    between atoms: _274  and  _275
REMARK  119  A    between atoms: _284  and  _286
REMARK  120  A    between atoms: _286  and  _287
REMARK  121  A    between atoms: _286  and  _289
REMARK  122  A    between atoms: _289  and  _290
REMARK  123  A    between atoms: _293  and  _295
REMARK  124  A    between atoms: _295  and  _296
REMARK  125  A    between atoms: _299  and  _301
REMARK  126  A    between atoms: _301  and  _302
REMARK  127  A    between atoms: _304  and  _306
REMARK  128  A    between atoms: _306  and  _307
REMARK  129  A    between atoms: _310  and  _312
REMARK  130  A    between atoms: _312  and  _313
REMARK  131  A    between atoms: _317  and  _318
REMARK  132  A    between atoms: _323  and  _325
REMARK  133  A    between atoms: _325  and  _326
REMARK  134  A    between atoms: _325  and  _328
REMARK  135  A    between atoms: _328  and  _329
REMARK                            x       y       z     vdW  Elec       q    Type
REMARK                         _______ _______ _______ _____ _____    ______ ____
ROOT
ATOM      1  CA  PHE A   2      13.663  -4.777  40.194  0.00  0.00    +0.141 C 
ENDROOT
BRANCH   1   3
ATOM      2  C   PRO A   1      11.617  -3.981  39.053  0.00  0.00    +0.239 C 
ATOM      3  N   PHE A   2      12.260  -4.912  39.763  0.00  0.00    -0.298 N 
ATOM      4  H   PHE A   2      11.744  -5.776  40.025  0.00  0.00    +0.150 HD
ATOM      5  O   PRO A   1      12.182  -3.073  38.408  0.00  0.00    -0.274 OA
BRANCH   2  10
ATOM      6  N   PRO A   1       9.582  -5.205  39.844  0.00  0.00    -0.210 NA
ATOM      7  CD  PRO A   1       8.860  -4.763  41.062  0.00  0.00    +0.089 C 
ATOM      8  CG  PRO A   1       8.358  -3.403  40.691  0.00  0.00    +0.021 C 
ATOM      9  CB  PRO A   1       9.526  -2.841  39.807  0.00  0.00    +0.028 C 
ATOM     10  CA  PRO A   1      10.098  -4.058  39.066  0.00  0.00    +0.149 C 
ENDBRANCH   2  10
ENDBRANCH   1   3
BRANCH   1  11
ATOM     11  C   PHE A   2      14.650  -5.916  39.903  0.00  0.00    +0.227 C 
ATOM     12  O   PHE A   2      15.828  -5.797  40.261  0.00  0.00    -0.286 OA
ENDBRANCH   1  11
BRANCH   1  13
ATOM     13  CB  PHE A   2      13.757  -4.402  41.705  0.00  0.00    +0.054 C 
BRANCH  13  14
ATOM     14  CG  PHE A   2      12.845  -3.297  42.121  0.00  0.00    -0.020 A 
ATOM     15  CD2 PHE A   2      11.765  -3.556  42.979  0.00  0.00    -0.004 A 
ATOM     16  CE2 PHE A   2      10.871  -2.528  43.384  0.00  0.00    -0.000 A 
ATOM     17  CZ  PHE A   2      11.064  -1.238  42.922  0.00  0.00    -0.000 A 
ATOM     18  CE1 PHE A   2      12.148  -0.978  42.015  0.00  0.00    -0.000 A 
ATOM     19  CD1 PHE A   2      13.027  -2.002  41.641  0.00  0.00    -0.004 A 
ENDBRANCH  13  14
ENDBRANCH   1  13
TORSDOF 5
REMARK  Name = ../refined-set-2016/3mof/3mof_pocket.pdb
REMARK  135 active torsions:
REMARK  status: ('A' for Active; 'I' for Inactive)
REMARK    1  A    between atoms: _1  and  _3
REMARK    2  A    between atoms: _3  and  _4
REMARK    3  A    between atoms: _7  and  _9
REMARK    4  A    between atoms: _9  and  _10
REMARK    5  A    between atoms: _9  and  _12
REMARK    6  A    between atoms: _12  and  _13
REMARK    7  A    between atoms: _13  and  _14
REMARK    8  A    between atoms: _14  and  _15
REMARK    9  A    between atoms: _24  and  _26
REMARK   10  A    between atoms: _26  and  _27
REMARK   11  A    between atoms: _26  and  _29
REMARK   12  A    between atoms: _29  and  _30
REMARK   13  A    between atoms: _30  and  _31
REMARK   14  A    between atoms: _34  and  _36
REMARK   15  A    between atoms: _36  and  _37
REMARK   16  A    between atoms: _36  and  _39
REMARK   17  A    between atoms: _39  and  _40
REMARK   18  A    between atoms: _45  and  _46
REMARK   19  A    between atoms: _48  and  _50
REMARK   20  A    between atoms: _50  and  _51
REMARK   21  A    between atoms: _53  and  _55
REMARK   22  A    between atoms: _55  and  _56
REMARK   23  A    between atoms: _58  and  _60
REMARK   24  A    between atoms: _60  and  _61
REMARK   25  A    between atoms: _60  and  _63
REMARK   26  A    between atoms: _63  and  _64
REMARK   27  A    between atoms: _69  and  _71
REMARK   28  A    between atoms: _71  and  _72
REMARK   29  A    between atoms: _71  and  _74
REMARK   30  A    between atoms: _74  and  _75
REMARK   31  A    between atoms: _75  and  _76
REMARK   32  A    between atoms: _76  and  _77
REMARK   33  A    between atoms: _77  and  _78
REMARK   34  A    between atoms: _82  and  _84
REMARK   35  A    between atoms: _84  and  _85
REMARK   36  A    between atoms: _84  and  _87
REMARK   37  A    between atoms: _87  and  _88
REMARK   38  A    between atoms: _88  and  _89
REMARK   39  A    between atoms: _89  and  _90
REMARK   40  A    between atoms: _90  and  _91
REMARK   41  A    between atoms: _95  and  _97
REMARK   42  A    between atoms: _97  and  _98
REMARK   43  A    between atoms: _97  and  _100
REMARK   44  A    between atoms: _100  and  _101
REMARK   45  A    between atoms: _104  and  _106
REMARK   46  A    between atoms: _106  and  _107
REMARK   47  A    between atoms: _106  and  _109
REMARK   48  A    between atoms: _109  and  _110
REMARK   49  A    between atoms: _110  and  _111
REMARK   50  A    between atoms: _111  and  _112
REMARK   51  A    between atoms: _121  and  _123
REMARK   52  A    between atoms: _123  and  _124
REMARK   53  A    between atoms: _123  and  _126
REMARK   54  A    between atoms: _126  and  _127
REMARK   55  A    between atoms: _131  and  MN_336
REMARK   56  A    between atoms: _132  and  _134
REMARK   57  A    between atoms: _134  and  _135
REMARK   58  A    between atoms: _134  and  _137
REMARK   59  A    between atoms: _137  and  _138
REMARK   60  A    between atoms: _145  and  _146
REMARK   61  A    between atoms: _151  and  _153
REMARK   62  A    between atoms: _153  and  _154
REMARK   63  A    between atoms: _153  and  _156
REMARK   64  A    between atoms: _156  and  _157
REMARK   65  A    between atoms: _159  and  _161
REMARK   66  A    between atoms: _161  and  _162
REMARK   67  A    between atoms: _165  and  _167
REMARK   68  A    between atoms: _167  and  _168
REMARK   69  A    between atoms: _167  and  _170
REMARK   70  A    between atoms: _172  and  _174
REMARK   71  A    between atoms: _174  and  _175
REMARK   72  A    between atoms: _174  and  _177
REMARK   73  A    between atoms: _177  and  _178
REMARK   74  A    between atoms: _178  and  _179
REMARK   75  A    between atoms: _179  and  _180
REMARK   76  A    between atoms: _180  and  _181
REMARK   77  A    between atoms: _185  and  _187
REMARK   78  A    between atoms: _187  and  _188
REMARK   79  A    between atoms: _187  and  _190
REMARK   80  A    between atoms: _190  and  _191
REMARK   81  A    between atoms: _194  and  _196
REMARK   82  A    between atoms: _196  and  _197
REMARK   83  A    between atoms: _196  and  _199
REMARK   84  A    between atoms: _199  and  _200
REMARK   85  A    between atoms: _203  and  _205
REMARK   86  A    between atoms: _205  and  _206
REMARK   87  A    between atoms: _205  and  _208
REMARK   88  A    between atoms: _208  and  _209
REMARK   89  A    between atoms: _209  and  _210
REMARK   90  A    between atoms: _210  and  MN_336
REMARK   91  A    between atoms: _212  and  _214
REMARK   92  A    between atoms: _214  and  _215
REMARK   93  A    between atoms: _214  and  _217
REMARK   94  A    between atoms: _217  and  _218
REMARK   95  A    between atoms: _221  and  _223
REMARK   96  A    between atoms: _223  and  _224
REMARK   97  A    between atoms: _223  and  _226
REMARK   98  A    between atoms: _226  and  _227
REMARK   99  A    between atoms: _227  and  _228
REMARK  100  A    between atoms: _231  and  _233
REMARK  101  A    between atoms: _233  and  _234
REMARK  102  A    between atoms: _233  and  _236
REMARK  103  A    between atoms: _236  and  _237
REMARK  104  A    between atoms: _243  and  _245
REMARK  105  A    between atoms: _245  and  _246
REMARK  106  A    between atoms: _248  and  _250
REMARK  107  A    between atoms: _250  and  _251
REMARK  108  A    between atoms: _250  and  _253
REMARK  109  A    between atoms: _256  and  _258
REMARK  110  A    between atoms: _258  and  _259
REMARK  111  A    between atoms: _258  and  _261
REMARK  112  A    between atoms: _261  and  _262
REMARK  113  A    between atoms: _267  and  _269
REMARK  114  A    between atoms: _269  and  _270
REMARK  115  A    between atoms: _269  and  _272
REMARK  116  A    between atoms: _272  and  _273
REMARK  117  A    between atoms: _273  and  _274
REMARK  118  A    between atoms: _274  and  _275
REMARK  119  A    between atoms: _284  and  _286
REMARK  120  A    between atoms: _286  and  _287
REMARK  121  A    between atoms: _286  and  _289
REMARK  122  A    between atoms: _289  and  _290
REMARK  123  A    between atoms: _293  and  _295
REMARK  124  A    between atoms: _295  and  _296
REMARK  125  A    between atoms: _299  and  _301
REMARK  126  A    between atoms: _301  and  _302
REMARK  127  A    between atoms: _304  and  _306
REMARK  128  A    between atoms: _306  and  _307
REMARK  129  A    between atoms: _310  and  _312
REMARK  130  A    between atoms: _312  and  _313
REMARK  131  A    between atoms: _317  and  _318
REMARK  132  A    between atoms: _323  and  _325
REMARK  133  A    between atoms: _325  and  _326
REMARK  134  A    between atoms: _325  and  _328
REMARK  135  A    between atoms: _328  and  _329
REMARK                            x       y       z     vdW  Elec       q    Type
REMARK                         _______ _______ _______ _____ _____    ______ ____
ROOT
ATOM      1 MN   UNL     1       9.246   2.596  52.107  0.00  0.00    +0.000 Mn
ATOM      2  O   UNL     1      10.907   3.950  52.029  0.00  0.00    +0.000 OA
ATOM      3  O   UNL     1      10.338   1.070  51.821  0.00  0.00    +0.000 OA
ENDROOT
TORSDOF 0
REMARK  Name = ../refined-set-2016/3mof/3mof_pocket.pdb
REMARK  135 active torsions:
REMARK  status: ('A' for Active; 'I' for Inactive)
REMARK    1  A    between atoms: _1  and  _3
REMARK    2  A    between atoms: _3  and  _4
REMARK    3  A    between atoms: _7  and  _9
REMARK    4  A    between atoms: _9  and  _10
REMARK    5  A    between atoms: _9  and  _12
REMARK    6  A    between atoms: _12  and  _13
REMARK    7  A    between atoms: _13  and  _14
REMARK    8  A    between atoms: _14  and  _15
REMARK    9  A    between atoms: _24  and  _26
REMARK   10  A    between atoms: _26  and  _27
REMARK   11  A    between atoms: _26  and  _29
REMARK   12  A    between atoms: _29  and  _30
REMARK   13  A    between atoms: _30  and  _31
REMARK   14  A    between atoms: _34  and  _36
REMARK   15  A    between atoms: _36  and  _37
REMARK   16  A    between atoms: _36  and  _39
REMARK   17  A    between atoms: _39  and  _40
REMARK   18  A    between atoms: _45  and  _46
REMARK   19  A    between atoms: _48  and  _50
REMARK   20  A    between atoms: _50  and  _51
REMARK   21  A    between atoms: _53  and  _55
REMARK   22  A    between atoms: _55  and  _56
REMARK   23  A    between atoms: _58  and  _60
REMARK   24  A    between atoms: _60  and  _61
REMARK   25  A    between atoms: _60  and  _63
REMARK   26  A    between atoms: _63  and  _64
REMARK   27  A    between atoms: _69  and  _71
REMARK   28  A    between atoms: _71  and  _72
REMARK   29  A    between atoms: _71  and  _74
REMARK   30  A    between atoms: _74  and  _75
REMARK   31  A    between atoms: _75  and  _76
REMARK   32  A    between atoms: _76  and  _77
REMARK   33  A    between atoms: _77  and  _78
REMARK   34  A    between atoms: _82  and  _84
REMARK   35  A    between atoms: _84  and  _85
REMARK   36  A    between atoms: _84  and  _87
REMARK   37  A    between atoms: _87  and  _88
REMARK   38  A    between atoms: _88  and  _89
REMARK   39  A    between atoms: _89  and  _90
REMARK   40  A    between atoms: _90  and  _91
REMARK   41  A    between atoms: _95  and  _97
REMARK   42  A    between atoms: _97  and  _98
REMARK   43  A    between atoms: _97  and  _100
REMARK   44  A    between atoms: _100  and  _101
REMARK   45  A    between atoms: _104  and  _106
REMARK   46  A    between atoms: _106  and  _107
REMARK   47  A    between atoms: _106  and  _109
REMARK   48  A    between atoms: _109  and  _110
REMARK   49  A    between atoms: _110  and  _111
REMARK   50  A    between atoms: _111  and  _112
REMARK   51  A    between atoms: _121  and  _123
REMARK   52  A    between atoms: _123  and  _124
REMARK   53  A    between atoms: _123  and  _126
REMARK   54  A    between atoms: _126  and  _127
REMARK   55  A    between atoms: _131  and  MN_336
REMARK   56  A    between atoms: _132  and  _134
REMARK   57  A    between atoms: _134  and  _135
REMARK   58  A    between atoms: _134  and  _137
REMARK   59  A    between atoms: _137  and  _138
REMARK   60  A    between atoms: _145  and  _146
REMARK   61  A    between atoms: _151  and  _153
REMARK   62  A    between atoms: _153  and  _154
REMARK   63  A    between atoms: _153  and  _156
REMARK   64  A    between atoms: _156  and  _157
REMARK   65  A    between atoms: _159  and  _161
REMARK   66  A    between atoms: _161  and  _162
REMARK   67  A    between atoms: _165  and  _167
REMARK   68  A    between atoms: _167  and  _168
REMARK   69  A    between atoms: _167  and  _170
REMARK   70  A    between atoms: _172  and  _174
REMARK   71  A    between atoms: _174  and  _175
REMARK   72  A    between atoms: _174  and  _177
REMARK   73  A    between atoms: _177  and  _178
REMARK   74  A    between atoms: _178  and  _179
REMARK   75  A    between atoms: _179  and  _180
REMARK   76  A    between atoms: _180  and  _181
REMARK   77  A    between atoms: _185  and  _187
REMARK   78  A    between atoms: _187  and  _188
REMARK   79  A    between atoms: _187  and  _190
REMARK   80  A    between atoms: _190  and  _191
REMARK   81  A    between atoms: _194  and  _196
REMARK   82  A    between atoms: _196  and  _197
REMARK   83  A    between atoms: _196  and  _199
REMARK   84  A    between atoms: _199  and  _200
REMARK   85  A    between atoms: _203  and  _205
REMARK   86  A    between atoms: _205  and  _206
REMARK   87  A    between atoms: _205  and  _208
REMARK   88  A    between atoms: _208  and  _209
REMARK   89  A    between atoms: _209  and  _210
REMARK   90  A    between atoms: _210  and  MN_336
REMARK   91  A    between atoms: _212  and  _214
REMARK   92  A    between atoms: _214  and  _215
REMARK   93  A    between atoms: _214  and  _217
REMARK   94  A    between atoms: _217  and  _218
REMARK   95  A    between atoms: _221  and  _223
REMARK   96  A    between atoms: _223  and  _224
REMARK   97  A    between atoms: _223  and  _226
REMARK   98  A    between atoms: _226  and  _227
REMARK   99  A    between atoms: _227  and  _228
REMARK  100  A    between atoms: _231  and  _233
REMARK  101  A    between atoms: _233  and  _234
REMARK  102  A    between atoms: _233  and  _236
REMARK  103  A    between atoms: _236  and  _237
REMARK  104  A    between atoms: _243  and  _245
REMARK  105  A    between atoms: _245  and  _246
REMARK  106  A    between atoms: _248  and  _250
REMARK  107  A    between atoms: _250  and  _251
REMARK  108  A    between atoms: _250  and  _253
REMARK  109  A    between atoms: _256  and  _258
REMARK  110  A    between atoms: _258  and  _259
REMARK  111  A    between atoms: _258  and  _261
REMARK  112  A    between atoms: _261  and  _262
REMARK  113  A    between atoms: _267  and  _269
REMARK  114  A    between atoms: _269  and  _270
REMARK  115  A    between atoms: _269  and  _272
REMARK  116  A    between atoms: _272  and  _273
REMARK  117  A    between atoms: _273  and  _274
REMARK  118  A    between atoms: _274  and  _275
REMARK  119  A    between atoms: _284  and  _286
REMARK  120  A    between atoms: _286  and  _287
REMARK  121  A    between atoms: _286  and  _289
REMARK  122  A    between atoms: _289  and  _290
REMARK  123  A    between atoms: _293  and  _295
REMARK  124  A    between atoms: _295  and  _296
REMARK  125  A    between atoms: _299  and  _301
REMARK  126  A    between atoms: _301  and  _302
REMARK  127  A    between atoms: _304  and  _306
REMARK  128  A    between atoms: _306  and  _307
REMARK  129  A    between atoms: _310  and  _312
REMARK  130  A    between atoms: _312  and  _313
REMARK  131  A    between atoms: _317  and  _318
REMARK  132  A    between atoms: _323  and  _325
REMARK  133  A    between atoms: _325  and  _326
REMARK  134  A    between atoms: _325  and  _328
REMARK  135  A    between atoms: _328  and  _329
REMARK                            x       y       z     vdW  Elec       q    Type
REMARK                         _______ _______ _______ _____ _____    ______ ____
ROOT
ATOM      1  O   HOH     1      12.085   4.013  49.608  0.00  0.00    +0.000 OA
ENDROOT
TORSDOF 0
REMARK  Name = ../refined-set-2016/3mof/3mof_pocket.pdb
REMARK  135 active torsions:
REMARK  status: ('A' for Active; 'I' for Inactive)
REMARK    1  A    between atoms: _1  and  _3
REMARK    2  A    between atoms: _3  and  _4
REMARK    3  A    between atoms: _7  and  _9
REMARK    4  A    between atoms: _9  and  _10
REMARK    5  A    between atoms: _9  and  _12
REMARK    6  A    between atoms: _12  and  _13
REMARK    7  A    between atoms: _13  and  _14
REMARK    8  A    between atoms: _14  and  _15
REMARK    9  A    between atoms: _24  and  _26
REMARK   10  A    between atoms: _26  and  _27
REMARK   11  A    between atoms: _26  and  _29
REMARK   12  A    between atoms: _29  and  _30
REMARK   13  A    between atoms: _30  and  _31
REMARK   14  A    between atoms: _34  and  _36
REMARK   15  A    between atoms: _36  and  _37
REMARK   16  A    between atoms: _36  and  _39
REMARK   17  A    between atoms: _39  and  _40
REMARK   18  A    between atoms: _45  and  _46
REMARK   19  A    between atoms: _48  and  _50
REMARK   20  A    between atoms: _50  and  _51
REMARK   21  A    between atoms: _53  and  _55
REMARK   22  A    between atoms: _55  and  _56
REMARK   23  A    between atoms: _58  and  _60
REMARK   24  A    between atoms: _60  and  _61
REMARK   25  A    between atoms: _60  and  _63
REMARK   26  A    between atoms: _63  and  _64
REMARK   27  A    between atoms: _69  and  _71
REMARK   28  A    between atoms: _71  and  _72
REMARK   29  A    between atoms: _71  and  _74
REMARK   30  A    between atoms: _74  and  _75
REMARK   31  A    between atoms: _75  and  _76
REMARK   32  A    between atoms: _76  and  _77
REMARK   33  A    between atoms: _77  and  _78
REMARK   34  A    between atoms: _82  and  _84
REMARK   35  A    between atoms: _84  and  _85
REMARK   36  A    between atoms: _84  and  _87
REMARK   37  A    between atoms: _87  and  _88
REMARK   38  A    between atoms: _88  and  _89
REMARK   39  A    between atoms: _89  and  _90
REMARK   40  A    between atoms: _90  and  _91
REMARK   41  A    between atoms: _95  and  _97
REMARK   42  A    between atoms: _97  and  _98
REMARK   43  A    between atoms: _97  and  _100
REMARK   44  A    between atoms: _100  and  _101
REMARK   45  A    between atoms: _104  and  _106
REMARK   46  A    between atoms: _106  and  _107
REMARK   47  A    between atoms: _106  and  _109
REMARK   48  A    between atoms: _109  and  _110
REMARK   49  A    between atoms: _110  and  _111
REMARK   50  A    between atoms: _111  and  _112
REMARK   51  A    between atoms: _121  and  _123
REMARK   52  A    between atoms: _123  and  _124
REMARK   53  A    between atoms: _123  and  _126
REMARK   54  A    between atoms: _126  and  _127
REMARK   55  A    between atoms: _131  and  MN_336
REMARK   56  A    between atoms: _132  and  _134
REMARK   57  A    between atoms: _134  and  _135
REMARK   58  A    between atoms: _134  and  _137
REMARK   59  A    between atoms: _137  and  _138
REMARK   60  A    between atoms: _145  and  _146
REMARK   61  A    between atoms: _151  and  _153
REMARK   62  A    between atoms: _153  and  _154
REMARK   63  A    between atoms: _153  and  _156
REMARK   64  A    between atoms: _156  and  _157
REMARK   65  A    between atoms: _159  and  _161
REMARK   66  A    between atoms: _161  and  _162
REMARK   67  A    between atoms: _165  and  _167
REMARK   68  A    between atoms: _167  and  _168
REMARK   69  A    between atoms: _167  and  _170
REMARK   70  A    between atoms: _172  and  _174
REMARK   71  A    between atoms: _174  and  _175
REMARK   72  A    between atoms: _174  and  _177
REMARK   73  A    between atoms: _177  and  _178
REMARK   74  A    between atoms: _178  and  _179
REMARK   75  A    between atoms: _179  and  _180
REMARK   76  A    between atoms: _180  and  _181
REMARK   77  A    between atoms: _185  and  _187
REMARK   78  A    between atoms: _187  and  _188
REMARK   79  A    between atoms: _187  and  _190
REMARK   80  A    between atoms: _190  and  _191
REMARK   81  A    between atoms: _194  and  _196
REMARK   82  A    between atoms: _196  and  _197
REMARK   83  A    between atoms: _196  and  _199
REMARK   84  A    between atoms: _199  and  _200
REMARK   85  A    between atoms: _203  and  _205
REMARK   86  A    between atoms: _205  and  _206
REMARK   87  A    between atoms: _205  and  _208
REMARK   88  A    between atoms: _208  and  _209
REMARK   89  A    between atoms: _209  and  _210
REMARK   90  A    between atoms: _210  and  MN_336
REMARK   91  A    between atoms: _212  and  _214
REMARK   92  A    between atoms: _214  and  _215
REMARK   93  A    between atoms: _214  and  _217
REMARK   94  A    between atoms: _217  and  _218
REMARK   95  A    between atoms: _221  and  _223
REMARK   96  A    between atoms: _223  and  _224
REMARK   97  A    between atoms: _223  and  _226
REMARK   98  A    between atoms: _226  and  _227
REMARK   99  A    between atoms: _227  and  _228
REMARK  100  A    between atoms: _231  and  _233
REMARK  101  A    between atoms: _233  and  _234
REMARK  102  A    between atoms: _233  and  _236
REMARK  103  A    between atoms: _236  and  _237
REMARK  104  A    between atoms: _243  and  _245
REMARK  105  A    between atoms: _245  and  _246
REMARK  106  A    between atoms: _248  and  _250
REMARK  107  A    between atoms: _250  and  _251
REMARK  108  A    between atoms: _250  and  _253
REMARK  109  A    between atoms: _256  and  _258
REMARK  110  A    between atoms: _258  and  _259
REMARK  111  A    between atoms: _258  and  _261
REMARK  112  A    between atoms: _261  and  _262
REMARK  113  A    between atoms: _267  and  _269
REMARK  114  A    between atoms: _269  and  _270
REMARK  115  A    between atoms: _269  and  _272
REMARK  116  A    between atoms: _272  and  _273
REMARK  117  A    between atoms: _273  and  _274
REMARK  118  A    between atoms: _274  and  _275
REMARK  119  A    between atoms: _284  and  _286
REMARK  120  A    between atoms: _286  and  _287
REMARK  121  A    between atoms: _286  and  _289
REMARK  122  A    between atoms: _289  and  _290
REMARK  123  A    between atoms: _293  and  _295
REMARK  124  A    between atoms: _295  and  _296
REMARK  125  A    between atoms: _299  and  _301
REMARK  126  A    between atoms: _301  and  _302
REMARK  127  A    between atoms: _304  and  _306
REMARK  128  A    between atoms: _306  and  _307
REMARK  129  A    between atoms: _310  and  _312
REMARK  130  A    between atoms: _312  and  _313
REMARK  131  A    between atoms: _317  and  _318
REMARK  132  A    between atoms: _323  and  _325
REMARK  133  A    between atoms: _325  and  _326
REMARK  134  A    between atoms: _325  and  _328
REMARK  135  A    between atoms: _328  and  _329
REMARK                            x       y       z     vdW  Elec       q    Type
REMARK                         _______ _______ _______ _____ _____    ______ ____
ROOT
ATOM      1  O   HOH     1      14.168   2.553  38.992  0.00  0.00    +0.000 OA
ENDROOT
TORSDOF 0
REMARK  Name = ../refined-set-2016/3mof/3mof_pocket.pdb
REMARK  135 active torsions:
REMARK  status: ('A' for Active; 'I' for Inactive)
REMARK    1  A    between atoms: _1  and  _3
REMARK    2  A    between atoms: _3  and  _4
REMARK    3  A    between atoms: _7  and  _9
REMARK    4  A    between atoms: _9  and  _10
REMARK    5  A    between atoms: _9  and  _12
REMARK    6  A    between atoms: _12  and  _13
REMARK    7  A    between atoms: _13  and  _14
REMARK    8  A    between atoms: _14  and  _15
REMARK    9  A    between atoms: _24  and  _26
REMARK   10  A    between atoms: _26  and  _27
REMARK   11  A    between atoms: _26  and  _29
REMARK   12  A    between atoms: _29  and  _30
REMARK   13  A    between atoms: _30  and  _31
REMARK   14  A    between atoms: _34  and  _36
REMARK   15  A    between atoms: _36  and  _37
REMARK   16  A    between atoms: _36  and  _39
REMARK   17  A    between atoms: _39  and  _40
REMARK   18  A    between atoms: _45  and  _46
REMARK   19  A    between atoms: _48  and  _50
REMARK   20  A    between atoms: _50  and  _51
REMARK   21  A    between atoms: _53  and  _55
REMARK   22  A    between atoms: _55  and  _56
REMARK   23  A    between atoms: _58  and  _60
REMARK   24  A    between atoms: _60  and  _61
REMARK   25  A    between atoms: _60  and  _63
REMARK   26  A    between atoms: _63  and  _64
REMARK   27  A    between atoms: _69  and  _71
REMARK   28  A    between atoms: _71  and  _72
REMARK   29  A    between atoms: _71  and  _74
REMARK   30  A    between atoms: _74  and  _75
REMARK   31  A    between atoms: _75  and  _76
REMARK   32  A    between atoms: _76  and  _77
REMARK   33  A    between atoms: _77  and  _78
REMARK   34  A    between atoms: _82  and  _84
REMARK   35  A    between atoms: _84  and  _85
REMARK   36  A    between atoms: _84  and  _87
REMARK   37  A    between atoms: _87  and  _88
REMARK   38  A    between atoms: _88  and  _89
REMARK   39  A    between atoms: _89  and  _90
REMARK   40  A    between atoms: _90  and  _91
REMARK   41  A    between atoms: _95  and  _97
REMARK   42  A    between atoms: _97  and  _98
REMARK   43  A    between atoms: _97  and  _100
REMARK   44  A    between atoms: _100  and  _101
REMARK   45  A    between atoms: _104  and  _106
REMARK   46  A    between atoms: _106  and  _107
REMARK   47  A    between atoms: _106  and  _109
REMARK   48  A    between atoms: _109  and  _110
REMARK   49  A    between atoms: _110  and  _111
REMARK   50  A    between atoms: _111  and  _112
REMARK   51  A    between atoms: _121  and  _123
REMARK   52  A    between atoms: _123  and  _124
REMARK   53  A    between atoms: _123  and  _126
REMARK   54  A    between atoms: _126  and  _127
REMARK   55  A    between atoms: _131  and  MN_336
REMARK   56  A    between atoms: _132  and  _134
REMARK   57  A    between atoms: _134  and  _135
REMARK   58  A    between atoms: _134  and  _137
REMARK   59  A    between atoms: _137  and  _138
REMARK   60  A    between atoms: _145  and  _146
REMARK   61  A    between atoms: _151  and  _153
REMARK   62  A    between atoms: _153  and  _154
REMARK   63  A    between atoms: _153  and  _156
REMARK   64  A    between atoms: _156  and  _157
REMARK   65  A    between atoms: _159  and  _161
REMARK   66  A    between atoms: _161  and  _162
REMARK   67  A    between atoms: _165  and  _167
REMARK   68  A    between atoms: _167  and  _168
REMARK   69  A    between atoms: _167  and  _170
REMARK   70  A    between atoms: _172  and  _174
REMARK   71  A    between atoms: _174  and  _175
REMARK   72  A    between atoms: _174  and  _177
REMARK   73  A    between atoms: _177  and  _178
REMARK   74  A    between atoms: _178  and  _179
REMARK   75  A    between atoms: _179  and  _180
REMARK   76  A    between atoms: _180  and  _181
REMARK   77  A    between atoms: _185  and  _187
REMARK   78  A    between atoms: _187  and  _188
REMARK   79  A    between atoms: _187  and  _190
REMARK   80  A    between atoms: _190  and  _191
REMARK   81  A    between atoms: _194  and  _196
REMARK   82  A    between atoms: _196  and  _197
REMARK   83  A    between atoms: _196  and  _199
REMARK   84  A    between atoms: _199  and  _200
REMARK   85  A    between atoms: _203  and  _205
REMARK   86  A    between atoms: _205  and  _206
REMARK   87  A    between atoms: _205  and  _208
REMARK   88  A    between atoms: _208  and  _209
REMARK   89  A    between atoms: _209  and  _210
REMARK   90  A    between atoms: _210  and  MN_336
REMARK   91  A    between atoms: _212  and  _214
REMARK   92  A    between atoms: _214  and  _215
REMARK   93  A    between atoms: _214  and  _217
REMARK   94  A    between atoms: _217  and  _218
REMARK   95  A    between atoms: _221  and  _223
REMARK   96  A    between atoms: _223  and  _224
REMARK   97  A    between atoms: _223  and  _226
REMARK   98  A    between atoms: _226  and  _227
REMARK   99  A    between atoms: _227  and  _228
REMARK  100  A    between atoms: _231  and  _233
REMARK  101  A    between atoms: _233  and  _234
REMARK  102  A    between atoms: _233  and  _236
REMARK  103  A    between atoms: _236  and  _237
REMARK  104  A    between atoms: _243  and  _245
REMARK  105  A    between atoms: _245  and  _246
REMARK  106  A    between atoms: _248  and  _250
REMARK  107  A    between atoms: _250  and  _251
REMARK  108  A    between atoms: _250  and  _253
REMARK  109  A    between atoms: _256  and  _258
REMARK  110  A    between atoms: _258  and  _259
REMARK  111  A    between atoms: _258  and  _261
REMARK  112  A    between atoms: _261  and  _262
REMARK  113  A    between atoms: _267  and  _269
REMARK  114  A    between atoms: _269  and  _270
REMARK  115  A    between atoms: _269  and  _272
REMARK  116  A    between atoms: _272  and  _273
REMARK  117  A    between atoms: _273  and  _274
REMARK  118  A    between atoms: _274  and  _275
REMARK  119  A    between atoms: _284  and  _286
REMARK  120  A    between atoms: _286  and  _287
REMARK  121  A    between atoms: _286  and  _289
REMARK  122  A    between atoms: _289  and  _290
REMARK  123  A    between atoms: _293  and  _295
REMARK  124  A    between atoms: _295  and  _296
REMARK  125  A    between atoms: _299  and  _301
REMARK  126  A    between atoms: _301  and  _302
REMARK  127  A    between atoms: _304  and  _306
REMARK  128  A    between atoms: _306  and  _307
REMARK  129  A    between atoms: _310  and  _312
REMARK  130  A    between atoms: _312  and  _313
REMARK  131  A    between atoms: _317  and  _318
REMARK  132  A    between atoms: _323  and  _325
REMARK  133  A    between atoms: _325  and  _326
REMARK  134  A    between atoms: _325  and  _328
REMARK  135  A    between atoms: _328  and  _329
REMARK                            x       y       z     vdW  Elec       q    Type
REMARK                         _______ _______ _______ _____ _____    ______ ____
ROOT
ATOM      1  O   HOH     1      17.136   4.181  41.609  0.00  0.00    +0.000 OA
ENDROOT
TORSDOF 0
REMARK  Name = ../refined-set-2016/3mof/3mof_pocket.pdb
REMARK  135 active torsions:
REMARK  status: ('A' for Active; 'I' for Inactive)
REMARK    1  A    between atoms: _1  and  _3
REMARK    2  A    between atoms: _3  and  _4
REMARK    3  A    between atoms: _7  and  _9
REMARK    4  A    between atoms: _9  and  _10
REMARK    5  A    between atoms: _9  and  _12
REMARK    6  A    between atoms: _12  and  _13
REMARK    7  A    between atoms: _13  and  _14
REMARK    8  A    between atoms: _14  and  _15
REMARK    9  A    between atoms: _24  and  _26
REMARK   10  A    between atoms: _26  and  _27
REMARK   11  A    between atoms: _26  and  _29
REMARK   12  A    between atoms: _29  and  _30
REMARK   13  A    between atoms: _30  and  _31
REMARK   14  A    between atoms: _34  and  _36
REMARK   15  A    between atoms: _36  and  _37
REMARK   16  A    between atoms: _36  and  _39
REMARK   17  A    between atoms: _39  and  _40
REMARK   18  A    between atoms: _45  and  _46
REMARK   19  A    between atoms: _48  and  _50
REMARK   20  A    between atoms: _50  and  _51
REMARK   21  A    between atoms: _53  and  _55
REMARK   22  A    between atoms: _55  and  _56
REMARK   23  A    between atoms: _58  and  _60
REMARK   24  A    between atoms: _60  and  _61
REMARK   25  A    between atoms: _60  and  _63
REMARK   26  A    between atoms: _63  and  _64
REMARK   27  A    between atoms: _69  and  _71
REMARK   28  A    between atoms: _71  and  _72
REMARK   29  A    between atoms: _71  and  _74
REMARK   30  A    between atoms: _74  and  _75
REMARK   31  A    between atoms: _75  and  _76
REMARK   32  A    between atoms: _76  and  _77
REMARK   33  A    between atoms: _77  and  _78
REMARK   34  A    between atoms: _82  and  _84
REMARK   35  A    between atoms: _84  and  _85
REMARK   36  A    between atoms: _84  and  _87
REMARK   37  A    between atoms: _87  and  _88
REMARK   38  A    between atoms: _88  and  _89
REMARK   39  A    between atoms: _89  and  _90
REMARK   40  A    between atoms: _90  and  _91
REMARK   41  A    between atoms: _95  and  _97
REMARK   42  A    between atoms: _97  and  _98
REMARK   43  A    between atoms: _97  and  _100
REMARK   44  A    between atoms: _100  and  _101
REMARK   45  A    between atoms: _104  and  _106
REMARK   46  A    between atoms: _106  and  _107
REMARK   47  A    between atoms: _106  and  _109
REMARK   48  A    between atoms: _109  and  _110
REMARK   49  A    between atoms: _110  and  _111
REMARK   50  A    between atoms: _111  and  _112
REMARK   51  A    between atoms: _121  and  _123
REMARK   52  A    between atoms: _123  and  _124
REMARK   53  A    between atoms: _123  and  _126
REMARK   54  A    between atoms: _126  and  _127
REMARK   55  A    between atoms: _131  and  MN_336
REMARK   56  A    between atoms: _132  and  _134
REMARK   57  A    between atoms: _134  and  _135
REMARK   58  A    between atoms: _134  and  _137
REMARK   59  A    between atoms: _137  and  _138
REMARK   60  A    between atoms: _145  and  _146
REMARK   61  A    between atoms: _151  and  _153
REMARK   62  A    between atoms: _153  and  _154
REMARK   63  A    between atoms: _153  and  _156
REMARK   64  A    between atoms: _156  and  _157
REMARK   65  A    between atoms: _159  and  _161
REMARK   66  A    between atoms: _161  and  _162
REMARK   67  A    between atoms: _165  and  _167
REMARK   68  A    between atoms: _167  and  _168
REMARK   69  A    between atoms: _167  and  _170
REMARK   70  A    between atoms: _172  and  _174
REMARK   71  A    between atoms: _174  and  _175
REMARK   72  A    between atoms: _174  and  _177
REMARK   73  A    between atoms: _177  and  _178
REMARK   74  A    between atoms: _178  and  _179
REMARK   75  A    between atoms: _179  and  _180
REMARK   76  A    between atoms: _180  and  _181
REMARK   77  A    between atoms: _185  and  _187
REMARK   78  A    between atoms: _187  and  _188
REMARK   79  A    between atoms: _187  and  _190
REMARK   80  A    between atoms: _190  and  _191
REMARK   81  A    between atoms: _194  and  _196
REMARK   82  A    between atoms: _196  and  _197
REMARK   83  A    between atoms: _196  and  _199
REMARK   84  A    between atoms: _199  and  _200
REMARK   85  A    between atoms: _203  and  _205
REMARK   86  A    between atoms: _205  and  _206
REMARK   87  A    between atoms: _205  and  _208
REMARK   88  A    between atoms: _208  and  _209
REMARK   89  A    between atoms: _209  and  _210
REMARK   90  A    between atoms: _210  and  MN_336
REMARK   91  A    between atoms: _212  and  _214
REMARK   92  A    between atoms: _214  and  _215
REMARK   93  A    between atoms: _214  and  _217
REMARK   94  A    between atoms: _217  and  _218
REMARK   95  A    between atoms: _221  and  _223
REMARK   96  A    between atoms: _223  and  _224
REMARK   97  A    between atoms: _223  and  _226
REMARK   98  A    between atoms: _226  and  _227
REMARK   99  A    between atoms: _227  and  _228
REMARK  100  A    between atoms: _231  and  _233
REMARK  101  A    between atoms: _233  and  _234
REMARK  102  A    between atoms: _233  and  _236
REMARK  103  A    between atoms: _236  and  _237
REMARK  104  A    between atoms: _243  and  _245
REMARK  105  A    between atoms: _245  and  _246
REMARK  106  A    between atoms: _248  and  _250
REMARK  107  A    between atoms: _250  and  _251
REMARK  108  A    between atoms: _250  and  _253
REMARK  109  A    between atoms: _256  and  _258
REMARK  110  A    between atoms: _258  and  _259
REMARK  111  A    between atoms: _258  and  _261
REMARK  112  A    between atoms: _261  and  _262
REMARK  113  A    between atoms: _267  and  _269
REMARK  114  A    between atoms: _269  and  _270
REMARK  115  A    between atoms: _269  and  _272
REMARK  116  A    between atoms: _272  and  _273
REMARK  117  A    between atoms: _273  and  _274
REMARK  118  A    between atoms: _274  and  _275
REMARK  119  A    between atoms: _284  and  _286
REMARK  120  A    between atoms: _286  and  _287
REMARK  121  A    between atoms: _286  and  _289
REMARK  122  A    between atoms: _289  and  _290
REMARK  123  A    between atoms: _293  and  _295
REMARK  124  A    between atoms: _295  and  _296
REMARK  125  A    between atoms: _299  and  _301
REMARK  126  A    between atoms: _301  and  _302
REMARK  127  A    between atoms: _304  and  _306
REMARK  128  A    between atoms: _306  and  _307
REMARK  129  A    between atoms: _310  and  _312
REMARK  130  A    between atoms: _312  and  _313
REMARK  131  A    between atoms: _317  and  _318
REMARK  132  A    between atoms: _323  and  _325
REMARK  133  A    between atoms: _325  and  _326
REMARK  134  A    between atoms: _325  and  _328
REMARK  135  A    between atoms: _328  and  _329
REMARK                            x       y       z     vdW  Elec       q    Type
REMARK                         _______ _______ _______ _____ _____    ______ ____
ROOT
ATOM      1  O   HOH     1      10.819   0.948  37.932  0.00  0.00    +0.000 OA
ENDROOT
TORSDOF 0
REMARK  Name = ../refined-set-2016/3mof/3mof_pocket.pdb
REMARK  135 active torsions:
REMARK  status: ('A' for Active; 'I' for Inactive)
REMARK    1  A    between atoms: _1  and  _3
REMARK    2  A    between atoms: _3  and  _4
REMARK    3  A    between atoms: _7  and  _9
REMARK    4  A    between atoms: _9  and  _10
REMARK    5  A    between atoms: _9  and  _12
REMARK    6  A    between atoms: _12  and  _13
REMARK    7  A    between atoms: _13  and  _14
REMARK    8  A    between atoms: _14  and  _15
REMARK    9  A    between atoms: _24  and  _26
REMARK   10  A    between atoms: _26  and  _27
REMARK   11  A    between atoms: _26  and  _29
REMARK   12  A    between atoms: _29  and  _30
REMARK   13  A    between atoms: _30  and  _31
REMARK   14  A    between atoms: _34  and  _36
REMARK   15  A    between atoms: _36  and  _37
REMARK   16  A    between atoms: _36  and  _39
REMARK   17  A    between atoms: _39  and  _40
REMARK   18  A    between atoms: _45  and  _46
REMARK   19  A    between atoms: _48  and  _50
REMARK   20  A    between atoms: _50  and  _51
REMARK   21  A    between atoms: _53  and  _55
REMARK   22  A    between atoms: _55  and  _56
REMARK   23  A    between atoms: _58  and  _60
REMARK   24  A    between atoms: _60  and  _61
REMARK   25  A    between atoms: _60  and  _63
REMARK   26  A    between atoms: _63  and  _64
REMARK   27  A    between atoms: _69  and  _71
REMARK   28  A    between atoms: _71  and  _72
REMARK   29  A    between atoms: _71  and  _74
REMARK   30  A    between atoms: _74  and  _75
REMARK   31  A    between atoms: _75  and  _76
REMARK   32  A    between atoms: _76  and  _77
REMARK   33  A    between atoms: _77  and  _78
REMARK   34  A    between atoms: _82  and  _84
REMARK   35  A    between atoms: _84  and  _85
REMARK   36  A    between atoms: _84  and  _87
REMARK   37  A    between atoms: _87  and  _88
REMARK   38  A    between atoms: _88  and  _89
REMARK   39  A    between atoms: _89  and  _90
REMARK   40  A    between atoms: _90  and  _91
REMARK   41  A    between atoms: _95  and  _97
REMARK   42  A    between atoms: _97  and  _98
REMARK   43  A    between atoms: _97  and  _100
REMARK   44  A    between atoms: _100  and  _101
REMARK   45  A    between atoms: _104  and  _106
REMARK   46  A    between atoms: _106  and  _107
REMARK   47  A    between atoms: _106  and  _109
REMARK   48  A    between atoms: _109  and  _110
REMARK   49  A    between atoms: _110  and  _111
REMARK   50  A    between atoms: _111  and  _112
REMARK   51  A    between atoms: _121  and  _123
REMARK   52  A    between atoms: _123  and  _124
REMARK   53  A    between atoms: _123  and  _126
REMARK   54  A    between atoms: _126  and  _127
REMARK   55  A    between atoms: _131  and  MN_336
REMARK   56  A    between atoms: _132  and  _134
REMARK   57  A    between atoms: _134  and  _135
REMARK   58  A    between atoms: _134  and  _137
REMARK   59  A    between atoms: _137  and  _138
REMARK   60  A    between atoms: _145  and  _146
REMARK   61  A    between atoms: _151  and  _153
REMARK   62  A    between atoms: _153  and  _154
REMARK   63  A    between atoms: _153  and  _156
REMARK   64  A    between atoms: _156  and  _157
REMARK   65  A    between atoms: _159  and  _161
REMARK   66  A    between atoms: _161  and  _162
REMARK   67  A    between atoms: _165  and  _167
REMARK   68  A    between atoms: _167  and  _168
REMARK   69  A    between atoms: _167  and  _170
REMARK   70  A    between atoms: _172  and  _174
REMARK   71  A    between atoms: _174  and  _175
REMARK   72  A    between atoms: _174  and  _177
REMARK   73  A    between atoms: _177  and  _178
REMARK   74  A    between atoms: _178  and  _179
REMARK   75  A    between atoms: _179  and  _180
REMARK   76  A    between atoms: _180  and  _181
REMARK   77  A    between atoms: _185  and  _187
REMARK   78  A    between atoms: _187  and  _188
REMARK   79  A    between atoms: _187  and  _190
REMARK   80  A    between atoms: _190  and  _191
REMARK   81  A    between atoms: _194  and  _196
REMARK   82  A    between atoms: _196  and  _197
REMARK   83  A    between atoms: _196  and  _199
REMARK   84  A    between atoms: _199  and  _200
REMARK   85  A    between atoms: _203  and  _205
REMARK   86  A    between atoms: _205  and  _206
REMARK   87  A    between atoms: _205  and  _208
REMARK   88  A    between atoms: _208  and  _209
REMARK   89  A    between atoms: _209  and  _210
REMARK   90  A    between atoms: _210  and  MN_336
REMARK   91  A    between atoms: _212  and  _214
REMARK   92  A    between atoms: _214  and  _215
REMARK   93  A    between atoms: _214  and  _217
REMARK   94  A    between atoms: _217  and  _218
REMARK   95  A    between atoms: _221  and  _223
REMARK   96  A    between atoms: _223  and  _224
REMARK   97  A    between atoms: _223  and  _226
REMARK   98  A    between atoms: _226  and  _227
REMARK   99  A    between atoms: _227  and  _228
REMARK  100  A    between atoms: _231  and  _233
REMARK  101  A    between atoms: _233  and  _234
REMARK  102  A    between atoms: _233  and  _236
REMARK  103  A    between atoms: _236  and  _237
REMARK  104  A    between atoms: _243  and  _245
REMARK  105  A    between atoms: _245  and  _246
REMARK  106  A    between atoms: _248  and  _250
REMARK  107  A    between atoms: _250  and  _251
REMARK  108  A    between atoms: _250  and  _253
REMARK  109  A    between atoms: _256  and  _258
REMARK  110  A    between atoms: _258  and  _259
REMARK  111  A    between atoms: _258  and  _261
REMARK  112  A    between atoms: _261  and  _262
REMARK  113  A    between atoms: _267  and  _269
REMARK  114  A    between atoms: _269  and  _270
REMARK  115  A    between atoms: _269  and  _272
REMARK  116  A    between atoms: _272  and  _273
REMARK  117  A    between atoms: _273  and  _274
REMARK  118  A    between atoms: _274  and  _275
REMARK  119  A    between atoms: _284  and  _286
REMARK  120  A    between atoms: _286  and  _287
REMARK  121  A    between atoms: _286  and  _289
REMARK  122  A    between atoms: _289  and  _290
REMARK  123  A    between atoms: _293  and  _295
REMARK  124  A    between atoms: _295  and  _296
REMARK  125  A    between atoms: _299  and  _301
REMARK  126  A    between atoms: _301  and  _302
REMARK  127  A    between atoms: _304  and  _306
REMARK  128  A    between atoms: _306  and  _307
REMARK  129  A    between atoms: _310  and  _312
REMARK  130  A    between atoms: _312  and  _313
REMARK  131  A    between atoms: _317  and  _318
REMARK  132  A    between atoms: _323  and  _325
REMARK  133  A    between atoms: _325  and  _326
REMARK  134  A    between atoms: _325  and  _328
REMARK  135  A    between atoms: _328  and  _329
REMARK                            x       y       z     vdW  Elec       q    Type
REMARK                         _______ _______ _______ _____ _____    ______ ____
ROOT
ATOM      1  O   HOH     1       5.742  -1.050  41.434  0.00  0.00    +0.000 OA
ENDROOT
TORSDOF 0
REMARK  Name = ../refined-set-2016/3mof/3mof_pocket.pdb
REMARK  135 active torsions:
REMARK  status: ('A' for Active; 'I' for Inactive)
REMARK    1  A    between atoms: _1  and  _3
REMARK    2  A    between atoms: _3  and  _4
REMARK    3  A    between atoms: _7  and  _9
REMARK    4  A    between atoms: _9  and  _10
REMARK    5  A    between atoms: _9  and  _12
REMARK    6  A    between atoms: _12  and  _13
REMARK    7  A    between atoms: _13  and  _14
REMARK    8  A    between atoms: _14  and  _15
REMARK    9  A    between atoms: _24  and  _26
REMARK   10  A    between atoms: _26  and  _27
REMARK   11  A    between atoms: _26  and  _29
REMARK   12  A    between atoms: _29  and  _30
REMARK   13  A    between atoms: _30  and  _31
REMARK   14  A    between atoms: _34  and  _36
REMARK   15  A    between atoms: _36  and  _37
REMARK   16  A    between atoms: _36  and  _39
REMARK   17  A    between atoms: _39  and  _40
REMARK   18  A    between atoms: _45  and  _46
REMARK   19  A    between atoms: _48  and  _50
REMARK   20  A    between atoms: _50  and  _51
REMARK   21  A    between atoms: _53  and  _55
REMARK   22  A    between atoms: _55  and  _56
REMARK   23  A    between atoms: _58  and  _60
REMARK   24  A    between atoms: _60  and  _61
REMARK   25  A    between atoms: _60  and  _63
REMARK   26  A    between atoms: _63  and  _64
REMARK   27  A    between atoms: _69  and  _71
REMARK   28  A    between atoms: _71  and  _72
REMARK   29  A    between atoms: _71  and  _74
REMARK   30  A    between atoms: _74  and  _75
REMARK   31  A    between atoms: _75  and  _76
REMARK   32  A    between atoms: _76  and  _77
REMARK   33  A    between atoms: _77  and  _78
REMARK   34  A    between atoms: _82  and  _84
REMARK   35  A    between atoms: _84  and  _85
REMARK   36  A    between atoms: _84  and  _87
REMARK   37  A    between atoms: _87  and  _88
REMARK   38  A    between atoms: _88  and  _89
REMARK   39  A    between atoms: _89  and  _90
REMARK   40  A    between atoms: _90  and  _91
REMARK   41  A    between atoms: _95  and  _97
REMARK   42  A    between atoms: _97  and  _98
REMARK   43  A    between atoms: _97  and  _100
REMARK   44  A    between atoms: _100  and  _101
REMARK   45  A    between atoms: _104  and  _106
REMARK   46  A    between atoms: _106  and  _107
REMARK   47  A    between atoms: _106  and  _109
REMARK   48  A    between atoms: _109  and  _110
REMARK   49  A    between atoms: _110  and  _111
REMARK   50  A    between atoms: _111  and  _112
REMARK   51  A    between atoms: _121  and  _123
REMARK   52  A    between atoms: _123  and  _124
REMARK   53  A    between atoms: _123  and  _126
REMARK   54  A    between atoms: _126  and  _127
REMARK   55  A    between atoms: _131  and  MN_336
REMARK   56  A    between atoms: _132  and  _134
REMARK   57  A    between atoms: _134  and  _135
REMARK   58  A    between atoms: _134  and  _137
REMARK   59  A    between atoms: _137  and  _138
REMARK   60  A    between atoms: _145  and  _146
REMARK   61  A    between atoms: _151  and  _153
REMARK   62  A    between atoms: _153  and  _154
REMARK   63  A    between atoms: _153  and  _156
REMARK   64  A    between atoms: _156  and  _157
REMARK   65  A    between atoms: _159  and  _161
REMARK   66  A    between atoms: _161  and  _162
REMARK   67  A    between atoms: _165  and  _167
REMARK   68  A    between atoms: _167  and  _168
REMARK   69  A    between atoms: _167  and  _170
REMARK   70  A    between atoms: _172  and  _174
REMARK   71  A    between atoms: _174  and  _175
REMARK   72  A    between atoms: _174  and  _177
REMARK   73  A    between atoms: _177  and  _178
REMARK   74  A    between atoms: _178  and  _179
REMARK   75  A    between atoms: _179  and  _180
REMARK   76  A    between atoms: _180  and  _181
REMARK   77  A    between atoms: _185  and  _187
REMARK   78  A    between atoms: _187  and  _188
REMARK   79  A    between atoms: _187  and  _190
REMARK   80  A    between atoms: _190  and  _191
REMARK   81  A    between atoms: _194  and  _196
REMARK   82  A    between atoms: _196  and  _197
REMARK   83  A    between atoms: _196  and  _199
REMARK   84  A    between atoms: _199  and  _200
REMARK   85  A    between atoms: _203  and  _205
REMARK   86  A    between atoms: _205  and  _206
REMARK   87  A    between atoms: _205  and  _208
REMARK   88  A    between atoms: _208  and  _209
REMARK   89  A    between atoms: _209  and  _210
REMARK   90  A    between atoms: _210  and  MN_336
REMARK   91  A    between atoms: _212  and  _214
REMARK   92  A    between atoms: _214  and  _215
REMARK   93  A    between atoms: _214  and  _217
REMARK   94  A    between atoms: _217  and  _218
REMARK   95  A    between atoms: _221  and  _223
REMARK   96  A    between atoms: _223  and  _224
REMARK   97  A    between atoms: _223  and  _226
REMARK   98  A    between atoms: _226  and  _227
REMARK   99  A    between atoms: _227  and  _228
REMARK  100  A    between atoms: _231  and  _233
REMARK  101  A    between atoms: _233  and  _234
REMARK  102  A    between atoms: _233  and  _236
REMARK  103  A    between atoms: _236  and  _237
REMARK  104  A    between atoms: _243  and  _245
REMARK  105  A    between atoms: _245  and  _246
REMARK  106  A    between atoms: _248  and  _250
REMARK  107  A    between atoms: _250  and  _251
REMARK  108  A    between atoms: _250  and  _253
REMARK  109  A    between atoms: _256  and  _258
REMARK  110  A    between atoms: _258  and  _259
REMARK  111  A    between atoms: _258  and  _261
REMARK  112  A    between atoms: _261  and  _262
REMARK  113  A    between atoms: _267  and  _269
REMARK  114  A    between atoms: _269  and  _270
REMARK  115  A    between atoms: _269  and  _272
REMARK  116  A    between atoms: _272  and  _273
REMARK  117  A    between atoms: _273  and  _274
REMARK  118  A    between atoms: _274  and  _275
REMARK  119  A    between atoms: _284  and  _286
REMARK  120  A    between atoms: _286  and  _287
REMARK  121  A    between atoms: _286  and  _289
REMARK  122  A    between atoms: _289  and  _290
REMARK  123  A    between atoms: _293  and  _295
REMARK  124  A    between atoms: _295  and  _296
REMARK  125  A    between atoms: _299  and  _301
REMARK  126  A    between atoms: _301  and  _302
REMARK  127  A    between atoms: _304  and  _306
REMARK  128  A    between atoms: _306  and  _307
REMARK  129  A    between atoms: _310  and  _312
REMARK  130  A    between atoms: _312  and  _313
REMARK  131  A    between atoms: _317  and  _318
REMARK  132  A    between atoms: _323  and  _325
REMARK  133  A    between atoms: _325  and  _326
REMARK  134  A    between atoms: _325  and  _328
REMARK  135  A    between atoms: _328  and  _329
REMARK                            x       y       z     vdW  Elec       q    Type
REMARK                         _______ _______ _______ _____ _____    ______ ____
ROOT
ATOM      1  O   HOH     1      14.337   4.197  51.789  0.00  0.00    +0.000 OA
ENDROOT
TORSDOF 0
REMARK  Name = ../refined-set-2016/3mof/3mof_pocket.pdb
REMARK  135 active torsions:
REMARK  status: ('A' for Active; 'I' for Inactive)
REMARK    1  A    between atoms: _1  and  _3
REMARK    2  A    between atoms: _3  and  _4
REMARK    3  A    between atoms: _7  and  _9
REMARK    4  A    between atoms: _9  and  _10
REMARK    5  A    between atoms: _9  and  _12
REMARK    6  A    between atoms: _12  and  _13
REMARK    7  A    between atoms: _13  and  _14
REMARK    8  A    between atoms: _14  and  _15
REMARK    9  A    between atoms: _24  and  _26
REMARK   10  A    between atoms: _26  and  _27
REMARK   11  A    between atoms: _26  and  _29
REMARK   12  A    between atoms: _29  and  _30
REMARK   13  A    between atoms: _30  and  _31
REMARK   14  A    between atoms: _34  and  _36
REMARK   15  A    between atoms: _36  and  _37
REMARK   16  A    between atoms: _36  and  _39
REMARK   17  A    between atoms: _39  and  _40
REMARK   18  A    between atoms: _45  and  _46
REMARK   19  A    between atoms: _48  and  _50
REMARK   20  A    between atoms: _50  and  _51
REMARK   21  A    between atoms: _53  and  _55
REMARK   22  A    between atoms: _55  and  _56
REMARK   23  A    between atoms: _58  and  _60
REMARK   24  A    between atoms: _60  and  _61
REMARK   25  A    between atoms: _60  and  _63
REMARK   26  A    between atoms: _63  and  _64
REMARK   27  A    between atoms: _69  and  _71
REMARK   28  A    between atoms: _71  and  _72
REMARK   29  A    between atoms: _71  and  _74
REMARK   30  A    between atoms: _74  and  _75
REMARK   31  A    between atoms: _75  and  _76
REMARK   32  A    between atoms: _76  and  _77
REMARK   33  A    between atoms: _77  and  _78
REMARK   34  A    between atoms: _82  and  _84
REMARK   35  A    between atoms: _84  and  _85
REMARK   36  A    between atoms: _84  and  _87
REMARK   37  A    between atoms: _87  and  _88
REMARK   38  A    between atoms: _88  and  _89
REMARK   39  A    between atoms: _89  and  _90
REMARK   40  A    between atoms: _90  and  _91
REMARK   41  A    between atoms: _95  and  _97
REMARK   42  A    between atoms: _97  and  _98
REMARK   43  A    between atoms: _97  and  _100
REMARK   44  A    between atoms: _100  and  _101
REMARK   45  A    between atoms: _104  and  _106
REMARK   46  A    between atoms: _106  and  _107
REMARK   47  A    between atoms: _106  and  _109
REMARK   48  A    between atoms: _109  and  _110
REMARK   49  A    between atoms: _110  and  _111
REMARK   50  A    between atoms: _111  and  _112
REMARK   51  A    between atoms: _121  and  _123
REMARK   52  A    between atoms: _123  and  _124
REMARK   53  A    between atoms: _123  and  _126
REMARK   54  A    between atoms: _126  and  _127
REMARK   55  A    between atoms: _131  and  MN_336
REMARK   56  A    between atoms: _132  and  _134
REMARK   57  A    between atoms: _134  and  _135
REMARK   58  A    between atoms: _134  and  _137
REMARK   59  A    between atoms: _137  and  _138
REMARK   60  A    between atoms: _145  and  _146
REMARK   61  A    between atoms: _151  and  _153
REMARK   62  A    between atoms: _153  and  _154
REMARK   63  A    between atoms: _153  and  _156
REMARK   64  A    between atoms: _156  and  _157
REMARK   65  A    between atoms: _159  and  _161
REMARK   66  A    between atoms: _161  and  _162
REMARK   67  A    between atoms: _165  and  _167
REMARK   68  A    between atoms: _167  and  _168
REMARK   69  A    between atoms: _167  and  _170
REMARK   70  A    between atoms: _172  and  _174
REMARK   71  A    between atoms: _174  and  _175
REMARK   72  A    between atoms: _174  and  _177
REMARK   73  A    between atoms: _177  and  _178
REMARK   74  A    between atoms: _178  and  _179
REMARK   75  A    between atoms: _179  and  _180
REMARK   76  A    between atoms: _180  and  _181
REMARK   77  A    between atoms: _185  and  _187
REMARK   78  A    between atoms: _187  and  _188
REMARK   79  A    between atoms: _187  and  _190
REMARK   80  A    between atoms: _190  and  _191
REMARK   81  A    between atoms: _194  and  _196
REMARK   82  A    between atoms: _196  and  _197
REMARK   83  A    between atoms: _196  and  _199
REMARK   84  A    between atoms: _199  and  _200
REMARK   85  A    between atoms: _203  and  _205
REMARK   86  A    between atoms: _205  and  _206
REMARK   87  A    between atoms: _205  and  _208
REMARK   88  A    between atoms: _208  and  _209
REMARK   89  A    between atoms: _209  and  _210
REMARK   90  A    between atoms: _210  and  MN_336
REMARK   91  A    between atoms: _212  and  _214
REMARK   92  A    between atoms: _214  and  _215
REMARK   93  A    between atoms: _214  and  _217
REMARK   94  A    between atoms: _217  and  _218
REMARK   95  A    between atoms: _221  and  _223
REMARK   96  A    between atoms: _223  and  _224
REMARK   97  A    between atoms: _223  and  _226
REMARK   98  A    between atoms: _226  and  _227
REMARK   99  A    between atoms: _227  and  _228
REMARK  100  A    between atoms: _231  and  _233
REMARK  101  A    between atoms: _233  and  _234
REMARK  102  A    between atoms: _233  and  _236
REMARK  103  A    between atoms: _236  and  _237
REMARK  104  A    between atoms: _243  and  _245
REMARK  105  A    between atoms: _245  and  _246
REMARK  106  A    between atoms: _248  and  _250
REMARK  107  A    between atoms: _250  and  _251
REMARK  108  A    between atoms: _250  and  _253
REMARK  109  A    between atoms: _256  and  _258
REMARK  110  A    between atoms: _258  and  _259
REMARK  111  A    between atoms: _258  and  _261
REMARK  112  A    between atoms: _261  and  _262
REMARK  113  A    between atoms: _267  and  _269
REMARK  114  A    between atoms: _269  and  _270
REMARK  115  A    between atoms: _269  and  _272
REMARK  116  A    between atoms: _272  and  _273
REMARK  117  A    between atoms: _273  and  _274
REMARK  118  A    between atoms: _274  and  _275
REMARK  119  A    between atoms: _284  and  _286
REMARK  120  A    between atoms: _286  and  _287
REMARK  121  A    between atoms: _286  and  _289
REMARK  122  A    between atoms: _289  and  _290
REMARK  123  A    between atoms: _293  and  _295
REMARK  124  A    between atoms: _295  and  _296
REMARK  125  A    between atoms: _299  and  _301
REMARK  126  A    between atoms: _301  and  _302
REMARK  127  A    between atoms: _304  and  _306
REMARK  128  A    between atoms: _306  and  _307
REMARK  129  A    between atoms: _310  and  _312
REMARK  130  A    between atoms: _312  and  _313
REMARK  131  A    between atoms: _317  and  _318
REMARK  132  A    between atoms: _323  and  _325
REMARK  133  A    between atoms: _325  and  _326
REMARK  134  A    between atoms: _325  and  _328
REMARK  135  A    between atoms: _328  and  _329
REMARK                            x       y       z     vdW  Elec       q    Type
REMARK                         _______ _______ _______ _____ _____    ______ ____
ROOT
ATOM      1  O   HOH     1       3.317  -2.251  44.383  0.00  0.00    +0.000 OA
ENDROOT
TORSDOF 0
REMARK  Name = ../refined-set-2016/3mof/3mof_pocket.pdb
REMARK  135 active torsions:
REMARK  status: ('A' for Active; 'I' for Inactive)
REMARK    1  A    between atoms: _1  and  _3
REMARK    2  A    between atoms: _3  and  _4
REMARK    3  A    between atoms: _7  and  _9
REMARK    4  A    between atoms: _9  and  _10
REMARK    5  A    between atoms: _9  and  _12
REMARK    6  A    between atoms: _12  and  _13
REMARK    7  A    between atoms: _13  and  _14
REMARK    8  A    between atoms: _14  and  _15
REMARK    9  A    between atoms: _24  and  _26
REMARK   10  A    between atoms: _26  and  _27
REMARK   11  A    between atoms: _26  and  _29
REMARK   12  A    between atoms: _29  and  _30
REMARK   13  A    between atoms: _30  and  _31
REMARK   14  A    between atoms: _34  and  _36
REMARK   15  A    between atoms: _36  and  _37
REMARK   16  A    between atoms: _36  and  _39
REMARK   17  A    between atoms: _39  and  _40
REMARK   18  A    between atoms: _45  and  _46
REMARK   19  A    between atoms: _48  and  _50
REMARK   20  A    between atoms: _50  and  _51
REMARK   21  A    between atoms: _53  and  _55
REMARK   22  A    between atoms: _55  and  _56
REMARK   23  A    between atoms: _58  and  _60
REMARK   24  A    between atoms: _60  and  _61
REMARK   25  A    between atoms: _60  and  _63
REMARK   26  A    between atoms: _63  and  _64
REMARK   27  A    between atoms: _69  and  _71
REMARK   28  A    between atoms: _71  and  _72
REMARK   29  A    between atoms: _71  and  _74
REMARK   30  A    between atoms: _74  and  _75
REMARK   31  A    between atoms: _75  and  _76
REMARK   32  A    between atoms: _76  and  _77
REMARK   33  A    between atoms: _77  and  _78
REMARK   34  A    between atoms: _82  and  _84
REMARK   35  A    between atoms: _84  and  _85
REMARK   36  A    between atoms: _84  and  _87
REMARK   37  A    between atoms: _87  and  _88
REMARK   38  A    between atoms: _88  and  _89
REMARK   39  A    between atoms: _89  and  _90
REMARK   40  A    between atoms: _90  and  _91
REMARK   41  A    between atoms: _95  and  _97
REMARK   42  A    between atoms: _97  and  _98
REMARK   43  A    between atoms: _97  and  _100
REMARK   44  A    between atoms: _100  and  _101
REMARK   45  A    between atoms: _104  and  _106
REMARK   46  A    between atoms: _106  and  _107
REMARK   47  A    between atoms: _106  and  _109
REMARK   48  A    between atoms: _109  and  _110
REMARK   49  A    between atoms: _110  and  _111
REMARK   50  A    between atoms: _111  and  _112
REMARK   51  A    between atoms: _121  and  _123
REMARK   52  A    between atoms: _123  and  _124
REMARK   53  A    between atoms: _123  and  _126
REMARK   54  A    between atoms: _126  and  _127
REMARK   55  A    between atoms: _131  and  MN_336
REMARK   56  A    between atoms: _132  and  _134
REMARK   57  A    between atoms: _134  and  _135
REMARK   58  A    between atoms: _134  and  _137
REMARK   59  A    between atoms: _137  and  _138
REMARK   60  A    between atoms: _145  and  _146
REMARK   61  A    between atoms: _151  and  _153
REMARK   62  A    between atoms: _153  and  _154
REMARK   63  A    between atoms: _153  and  _156
REMARK   64  A    between atoms: _156  and  _157
REMARK   65  A    between atoms: _159  and  _161
REMARK   66  A    between atoms: _161  and  _162
REMARK   67  A    between atoms: _165  and  _167
REMARK   68  A    between atoms: _167  and  _168
REMARK   69  A    between atoms: _167  and  _170
REMARK   70  A    between atoms: _172  and  _174
REMARK   71  A    between atoms: _174  and  _175
REMARK   72  A    between atoms: _174  and  _177
REMARK   73  A    between atoms: _177  and  _178
REMARK   74  A    between atoms: _178  and  _179
REMARK   75  A    between atoms: _179  and  _180
REMARK   76  A    between atoms: _180  and  _181
REMARK   77  A    between atoms: _185  and  _187
REMARK   78  A    between atoms: _187  and  _188
REMARK   79  A    between atoms: _187  and  _190
REMARK   80  A    between atoms: _190  and  _191
REMARK   81  A    between atoms: _194  and  _196
REMARK   82  A    between atoms: _196  and  _197
REMARK   83  A    between atoms: _196  and  _199
REMARK   84  A    between atoms: _199  and  _200
REMARK   85  A    between atoms: _203  and  _205
REMARK   86  A    between atoms: _205  and  _206
REMARK   87  A    between atoms: _205  and  _208
REMARK   88  A    between atoms: _208  and  _209
REMARK   89  A    between atoms: _209  and  _210
REMARK   90  A    between atoms: _210  and  MN_336
REMARK   91  A    between atoms: _212  and  _214
REMARK   92  A    between atoms: _214  and  _215
REMARK   93  A    between atoms: _214  and  _217
REMARK   94  A    between atoms: _217  and  _218
REMARK   95  A    between atoms: _221  and  _223
REMARK   96  A    between atoms: _223  and  _224
REMARK   97  A    between atoms: _223  and  _226
REMARK   98  A    between atoms: _226  and  _227
REMARK   99  A    between atoms: _227  and  _228
REMARK  100  A    between atoms: _231  and  _233
REMARK  101  A    between atoms: _233  and  _234
REMARK  102  A    between atoms: _233  and  _236
REMARK  103  A    between atoms: _236  and  _237
REMARK  104  A    between atoms: _243  and  _245
REMARK  105  A    between atoms: _245  and  _246
REMARK  106  A    between atoms: _248  and  _250
REMARK  107  A    between atoms: _250  and  _251
REMARK  108  A    between atoms: _250  and  _253
REMARK  109  A    between atoms: _256  and  _258
REMARK  110  A    between atoms: _258  and  _259
REMARK  111  A    between atoms: _258  and  _261
REMARK  112  A    between atoms: _261  and  _262
REMARK  113  A    between atoms: _267  and  _269
REMARK  114  A    between atoms: _269  and  _270
REMARK  115  A    between atoms: _269  and  _272
REMARK  116  A    between atoms: _272  and  _273
REMARK  117  A    between atoms: _273  and  _274
REMARK  118  A    between atoms: _274  and  _275
REMARK  119  A    between atoms: _284  and  _286
REMARK  120  A    between atoms: _286  and  _287
REMARK  121  A    between atoms: _286  and  _289
REMARK  122  A    between atoms: _289  and  _290
REMARK  123  A    between atoms: _293  and  _295
REMARK  124  A    between atoms: _295  and  _296
REMARK  125  A    between atoms: _299  and  _301
REMARK  126  A    between atoms: _301  and  _302
REMARK  127  A    between atoms: _304  and  _306
REMARK  128  A    between atoms: _306  and  _307
REMARK  129  A    between atoms: _310  and  _312
REMARK  130  A    between atoms: _312  and  _313
REMARK  131  A    between atoms: _317  and  _318
REMARK  132  A    between atoms: _323  and  _325
REMARK  133  A    between atoms: _325  and  _326
REMARK  134  A    between atoms: _325  and  _328
REMARK  135  A    between atoms: _328  and  _329
REMARK                            x       y       z     vdW  Elec       q    Type
REMARK                         _______ _______ _______ _____ _____    ______ ____
ROOT
ATOM      1  O   HOH     1       7.439   4.414  52.233  0.00  0.00    +0.000 OA
ENDROOT
TORSDOF 0
REMARK  Name = ../refined-set-2016/3mof/3mof_pocket.pdb
REMARK  135 active torsions:
REMARK  status: ('A' for Active; 'I' for Inactive)
REMARK    1  A    between atoms: _1  and  _3
REMARK    2  A    between atoms: _3  and  _4
REMARK    3  A    between atoms: _7  and  _9
REMARK    4  A    between atoms: _9  and  _10
REMARK    5  A    between atoms: _9  and  _12
REMARK    6  A    between atoms: _12  and  _13
REMARK    7  A    between atoms: _13  and  _14
REMARK    8  A    between atoms: _14  and  _15
REMARK    9  A    between atoms: _24  and  _26
REMARK   10  A    between atoms: _26  and  _27
REMARK   11  A    between atoms: _26  and  _29
REMARK   12  A    between atoms: _29  and  _30
REMARK   13  A    between atoms: _30  and  _31
REMARK   14  A    between atoms: _34  and  _36
REMARK   15  A    between atoms: _36  and  _37
REMARK   16  A    between atoms: _36  and  _39
REMARK   17  A    between atoms: _39  and  _40
REMARK   18  A    between atoms: _45  and  _46
REMARK   19  A    between atoms: _48  and  _50
REMARK   20  A    between atoms: _50  and  _51
REMARK   21  A    between atoms: _53  and  _55
REMARK   22  A    between atoms: _55  and  _56
REMARK   23  A    between atoms: _58  and  _60
REMARK   24  A    between atoms: _60  and  _61
REMARK   25  A    between atoms: _60  and  _63
REMARK   26  A    between atoms: _63  and  _64
REMARK   27  A    between atoms: _69  and  _71
REMARK   28  A    between atoms: _71  and  _72
REMARK   29  A    between atoms: _71  and  _74
REMARK   30  A    between atoms: _74  and  _75
REMARK   31  A    between atoms: _75  and  _76
REMARK   32  A    between atoms: _76  and  _77
REMARK   33  A    between atoms: _77  and  _78
REMARK   34  A    between atoms: _82  and  _84
REMARK   35  A    between atoms: _84  and  _85
REMARK   36  A    between atoms: _84  and  _87
REMARK   37  A    between atoms: _87  and  _88
REMARK   38  A    between atoms: _88  and  _89
REMARK   39  A    between atoms: _89  and  _90
REMARK   40  A    between atoms: _90  and  _91
REMARK   41  A    between atoms: _95  and  _97
REMARK   42  A    between atoms: _97  and  _98
REMARK   43  A    between atoms: _97  and  _100
REMARK   44  A    between atoms: _100  and  _101
REMARK   45  A    between atoms: _104  and  _106
REMARK   46  A    between atoms: _106  and  _107
REMARK   47  A    between atoms: _106  and  _109
REMARK   48  A    between atoms: _109  and  _110
REMARK   49  A    between atoms: _110  and  _111
REMARK   50  A    between atoms: _111  and  _112
REMARK   51  A    between atoms: _121  and  _123
REMARK   52  A    between atoms: _123  and  _124
REMARK   53  A    between atoms: _123  and  _126
REMARK   54  A    between atoms: _126  and  _127
REMARK   55  A    between atoms: _131  and  MN_336
REMARK   56  A    between atoms: _132  and  _134
REMARK   57  A    between atoms: _134  and  _135
REMARK   58  A    between atoms: _134  and  _137
REMARK   59  A    between atoms: _137  and  _138
REMARK   60  A    between atoms: _145  and  _146
REMARK   61  A    between atoms: _151  and  _153
REMARK   62  A    between atoms: _153  and  _154
REMARK   63  A    between atoms: _153  and  _156
REMARK   64  A    between atoms: _156  and  _157
REMARK   65  A    between atoms: _159  and  _161
REMARK   66  A    between atoms: _161  and  _162
REMARK   67  A    between atoms: _165  and  _167
REMARK   68  A    between atoms: _167  and  _168
REMARK   69  A    between atoms: _167  and  _170
REMARK   70  A    between atoms: _172  and  _174
REMARK   71  A    between atoms: _174  and  _175
REMARK   72  A    between atoms: _174  and  _177
REMARK   73  A    between atoms: _177  and  _178
REMARK   74  A    between atoms: _178  and  _179
REMARK   75  A    between atoms: _179  and  _180
REMARK   76  A    between atoms: _180  and  _181
REMARK   77  A    between atoms: _185  and  _187
REMARK   78  A    between atoms: _187  and  _188
REMARK   79  A    between atoms: _187  and  _190
REMARK   80  A    between atoms: _190  and  _191
REMARK   81  A    between atoms: _194  and  _196
REMARK   82  A    between atoms: _196  and  _197
REMARK   83  A    between atoms: _196  and  _199
REMARK   84  A    between atoms: _199  and  _200
REMARK   85  A    between atoms: _203  and  _205
REMARK   86  A    between atoms: _205  and  _206
REMARK   87  A    between atoms: _205  and  _208
REMARK   88  A    between atoms: _208  and  _209
REMARK   89  A    between atoms: _209  and  _210
REMARK   90  A    between atoms: _210  and  MN_336
REMARK   91  A    between atoms: _212  and  _214
REMARK   92  A    between atoms: _214  and  _215
REMARK   93  A    between atoms: _214  and  _217
REMARK   94  A    between atoms: _217  and  _218
REMARK   95  A    between atoms: _221  and  _223
REMARK   96  A    between atoms: _223  and  _224
REMARK   97  A    between atoms: _223  and  _226
REMARK   98  A    between atoms: _226  and  _227
REMARK   99  A    between atoms: _227  and  _228
REMARK  100  A    between atoms: _231  and  _233
REMARK  101  A    between atoms: _233  and  _234
REMARK  102  A    between atoms: _233  and  _236
REMARK  103  A    between atoms: _236  and  _237
REMARK  104  A    between atoms: _243  and  _245
REMARK  105  A    between atoms: _245  and  _246
REMARK  106  A    between atoms: _248  and  _250
REMARK  107  A    between atoms: _250  and  _251
REMARK  108  A    between atoms: _250  and  _253
REMARK  109  A    between atoms: _256  and  _258
REMARK  110  A    between atoms: _258  and  _259
REMARK  111  A    between atoms: _258  and  _261
REMARK  112  A    between atoms: _261  and  _262
REMARK  113  A    between atoms: _267  and  _269
REMARK  114  A    between atoms: _269  and  _270
REMARK  115  A    between atoms: _269  and  _272
REMARK  116  A    between atoms: _272  and  _273
REMARK  117  A    between atoms: _273  and  _274
REMARK  118  A    between atoms: _274  and  _275
REMARK  119  A    between atoms: _284  and  _286
REMARK  120  A    between atoms: _286  and  _287
REMARK  121  A    between atoms: _286  and  _289
REMARK  122  A    between atoms: _289  and  _290
REMARK  123  A    between atoms: _293  and  _295
REMARK  124  A    between atoms: _295  and  _296
REMARK  125  A    between atoms: _299  and  _301
REMARK  126  A    between atoms: _301  and  _302
REMARK  127  A    between atoms: _304  and  _306
REMARK  128  A    between atoms: _306  and  _307
REMARK  129  A    between atoms: _310  and  _312
REMARK  130  A    between atoms: _312  and  _313
REMARK  131  A    between atoms: _317  and  _318
REMARK  132  A    between atoms: _323  and  _325
REMARK  133  A    between atoms: _325  and  _326
REMARK  134  A    between atoms: _325  and  _328
REMARK  135  A    between atoms: _328  and  _329
REMARK                            x       y       z     vdW  Elec       q    Type
REMARK                         _______ _______ _______ _____ _____    ______ ____
ROOT
ATOM      1  O   HOH     1      10.950   5.347  43.642  0.00  0.00    +0.000 OA
ENDROOT
TORSDOF 0
REMARK  Name = ../refined-set-2016/3mof/3mof_pocket.pdb
REMARK  135 active torsions:
REMARK  status: ('A' for Active; 'I' for Inactive)
REMARK    1  A    between atoms: _1  and  _3
REMARK    2  A    between atoms: _3  and  _4
REMARK    3  A    between atoms: _7  and  _9
REMARK    4  A    between atoms: _9  and  _10
REMARK    5  A    between atoms: _9  and  _12
REMARK    6  A    between atoms: _12  and  _13
REMARK    7  A    between atoms: _13  and  _14
REMARK    8  A    between atoms: _14  and  _15
REMARK    9  A    between atoms: _24  and  _26
REMARK   10  A    between atoms: _26  and  _27
REMARK   11  A    between atoms: _26  and  _29
REMARK   12  A    between atoms: _29  and  _30
REMARK   13  A    between atoms: _30  and  _31
REMARK   14  A    between atoms: _34  and  _36
REMARK   15  A    between atoms: _36  and  _37
REMARK   16  A    between atoms: _36  and  _39
REMARK   17  A    between atoms: _39  and  _40
REMARK   18  A    between atoms: _45  and  _46
REMARK   19  A    between atoms: _48  and  _50
REMARK   20  A    between atoms: _50  and  _51
REMARK   21  A    between atoms: _53  and  _55
REMARK   22  A    between atoms: _55  and  _56
REMARK   23  A    between atoms: _58  and  _60
REMARK   24  A    between atoms: _60  and  _61
REMARK   25  A    between atoms: _60  and  _63
REMARK   26  A    between atoms: _63  and  _64
REMARK   27  A    between atoms: _69  and  _71
REMARK   28  A    between atoms: _71  and  _72
REMARK   29  A    between atoms: _71  and  _74
REMARK   30  A    between atoms: _74  and  _75
REMARK   31  A    between atoms: _75  and  _76
REMARK   32  A    between atoms: _76  and  _77
REMARK   33  A    between atoms: _77  and  _78
REMARK   34  A    between atoms: _82  and  _84
REMARK   35  A    between atoms: _84  and  _85
REMARK   36  A    between atoms: _84  and  _87
REMARK   37  A    between atoms: _87  and  _88
REMARK   38  A    between atoms: _88  and  _89
REMARK   39  A    between atoms: _89  and  _90
REMARK   40  A    between atoms: _90  and  _91
REMARK   41  A    between atoms: _95  and  _97
REMARK   42  A    between atoms: _97  and  _98
REMARK   43  A    between atoms: _97  and  _100
REMARK   44  A    between atoms: _100  and  _101
REMARK   45  A    between atoms: _104  and  _106
REMARK   46  A    between atoms: _106  and  _107
REMARK   47  A    between atoms: _106  and  _109
REMARK   48  A    between atoms: _109  and  _110
REMARK   49  A    between atoms: _110  and  _111
REMARK   50  A    between atoms: _111  and  _112
REMARK   51  A    between atoms: _121  and  _123
REMARK   52  A    between atoms: _123  and  _124
REMARK   53  A    between atoms: _123  and  _126
REMARK   54  A    between atoms: _126  and  _127
REMARK   55  A    between atoms: _131  and  MN_336
REMARK   56  A    between atoms: _132  and  _134
REMARK   57  A    between atoms: _134  and  _135
REMARK   58  A    between atoms: _134  and  _137
REMARK   59  A    between atoms: _137  and  _138
REMARK   60  A    between atoms: _145  and  _146
REMARK   61  A    between atoms: _151  and  _153
REMARK   62  A    between atoms: _153  and  _154
REMARK   63  A    between atoms: _153  and  _156
REMARK   64  A    between atoms: _156  and  _157
REMARK   65  A    between atoms: _159  and  _161
REMARK   66  A    between atoms: _161  and  _162
REMARK   67  A    between atoms: _165  and  _167
REMARK   68  A    between atoms: _167  and  _168
REMARK   69  A    between atoms: _167  and  _170
REMARK   70  A    between atoms: _172  and  _174
REMARK   71  A    between atoms: _174  and  _175
REMARK   72  A    between atoms: _174  and  _177
REMARK   73  A    between atoms: _177  and  _178
REMARK   74  A    between atoms: _178  and  _179
REMARK   75  A    between atoms: _179  and  _180
REMARK   76  A    between atoms: _180  and  _181
REMARK   77  A    between atoms: _185  and  _187
REMARK   78  A    between atoms: _187  and  _188
REMARK   79  A    between atoms: _187  and  _190
REMARK   80  A    between atoms: _190  and  _191
REMARK   81  A    between atoms: _194  and  _196
REMARK   82  A    between atoms: _196  and  _197
REMARK   83  A    between atoms: _196  and  _199
REMARK   84  A    between atoms: _199  and  _200
REMARK   85  A    between atoms: _203  and  _205
REMARK   86  A    between atoms: _205  and  _206
REMARK   87  A    between atoms: _205  and  _208
REMARK   88  A    between atoms: _208  and  _209
REMARK   89  A    between atoms: _209  and  _210
REMARK   90  A    between atoms: _210  and  MN_336
REMARK   91  A    between atoms: _212  and  _214
REMARK   92  A    between atoms: _214  and  _215
REMARK   93  A    between atoms: _214  and  _217
REMARK   94  A    between atoms: _217  and  _218
REMARK   95  A    between atoms: _221  and  _223
REMARK   96  A    between atoms: _223  and  _224
REMARK   97  A    between atoms: _223  and  _226
REMARK   98  A    between atoms: _226  and  _227
REMARK   99  A    between atoms: _227  and  _228
REMARK  100  A    between atoms: _231  and  _233
REMARK  101  A    between atoms: _233  and  _234
REMARK  102  A    between atoms: _233  and  _236
REMARK  103  A    between atoms: _236  and  _237
REMARK  104  A    between atoms: _243  and  _245
REMARK  105  A    between atoms: _245  and  _246
REMARK  106  A    between atoms: _248  and  _250
REMARK  107  A    between atoms: _250  and  _251
REMARK  108  A    between atoms: _250  and  _253
REMARK  109  A    between atoms: _256  and  _258
REMARK  110  A    between atoms: _258  and  _259
REMARK  111  A    between atoms: _258  and  _261
REMARK  112  A    between atoms: _261  and  _262
REMARK  113  A    between atoms: _267  and  _269
REMARK  114  A    between atoms: _269  and  _270
REMARK  115  A    between atoms: _269  and  _272
REMARK  116  A    between atoms: _272  and  _273
REMARK  117  A    between atoms: _273  and  _274
REMARK  118  A    between atoms: _274  and  _275
REMARK  119  A    between atoms: _284  and  _286
REMARK  120  A    between atoms: _286  and  _287
REMARK  121  A    between atoms: _286  and  _289
REMARK  122  A    between atoms: _289  and  _290
REMARK  123  A    between atoms: _293  and  _295
REMARK  124  A    between atoms: _295  and  _296
REMARK  125  A    between atoms: _299  and  _301
REMARK  126  A    between atoms: _301  and  _302
REMARK  127  A    between atoms: _304  and  _306
REMARK  128  A    between atoms: _306  and  _307
REMARK  129  A    between atoms: _310  and  _312
REMARK  130  A    between atoms: _312  and  _313
REMARK  131  A    between atoms: _317  and  _318
REMARK  132  A    between atoms: _323  and  _325
REMARK  133  A    between atoms: _325  and  _326
REMARK  134  A    between atoms: _325  and  _328
REMARK  135  A    between atoms: _328  and  _329
REMARK                            x       y       z     vdW  Elec       q    Type
REMARK                         _______ _______ _______ _____ _____    ______ ____
ROOT
ATOM      1  O   HOH     1       7.377  -4.180  44.277  0.00  0.00    +0.000 OA
ENDROOT
TORSDOF 0
REMARK  Name = ../refined-set-2016/3mof/3mof_pocket.pdb
REMARK  135 active torsions:
REMARK  status: ('A' for Active; 'I' for Inactive)
REMARK    1  A    between atoms: _1  and  _3
REMARK    2  A    between atoms: _3  and  _4
REMARK    3  A    between atoms: _7  and  _9
REMARK    4  A    between atoms: _9  and  _10
REMARK    5  A    between atoms: _9  and  _12
REMARK    6  A    between atoms: _12  and  _13
REMARK    7  A    between atoms: _13  and  _14
REMARK    8  A    between atoms: _14  and  _15
REMARK    9  A    between atoms: _24  and  _26
REMARK   10  A    between atoms: _26  and  _27
REMARK   11  A    between atoms: _26  and  _29
REMARK   12  A    between atoms: _29  and  _30
REMARK   13  A    between atoms: _30  and  _31
REMARK   14  A    between atoms: _34  and  _36
REMARK   15  A    between atoms: _36  and  _37
REMARK   16  A    between atoms: _36  and  _39
REMARK   17  A    between atoms: _39  and  _40
REMARK   18  A    between atoms: _45  and  _46
REMARK   19  A    between atoms: _48  and  _50
REMARK   20  A    between atoms: _50  and  _51
REMARK   21  A    between atoms: _53  and  _55
REMARK   22  A    between atoms: _55  and  _56
REMARK   23  A    between atoms: _58  and  _60
REMARK   24  A    between atoms: _60  and  _61
REMARK   25  A    between atoms: _60  and  _63
REMARK   26  A    between atoms: _63  and  _64
REMARK   27  A    between atoms: _69  and  _71
REMARK   28  A    between atoms: _71  and  _72
REMARK   29  A    between atoms: _71  and  _74
REMARK   30  A    between atoms: _74  and  _75
REMARK   31  A    between atoms: _75  and  _76
REMARK   32  A    between atoms: _76  and  _77
REMARK   33  A    between atoms: _77  and  _78
REMARK   34  A    between atoms: _82  and  _84
REMARK   35  A    between atoms: _84  and  _85
REMARK   36  A    between atoms: _84  and  _87
REMARK   37  A    between atoms: _87  and  _88
REMARK   38  A    between atoms: _88  and  _89
REMARK   39  A    between atoms: _89  and  _90
REMARK   40  A    between atoms: _90  and  _91
REMARK   41  A    between atoms: _95  and  _97
REMARK   42  A    between atoms: _97  and  _98
REMARK   43  A    between atoms: _97  and  _100
REMARK   44  A    between atoms: _100  and  _101
REMARK   45  A    between atoms: _104  and  _106
REMARK   46  A    between atoms: _106  and  _107
REMARK   47  A    between atoms: _106  and  _109
REMARK   48  A    between atoms: _109  and  _110
REMARK   49  A    between atoms: _110  and  _111
REMARK   50  A    between atoms: _111  and  _112
REMARK   51  A    between atoms: _121  and  _123
REMARK   52  A    between atoms: _123  and  _124
REMARK   53  A    between atoms: _123  and  _126
REMARK   54  A    between atoms: _126  and  _127
REMARK   55  A    between atoms: _131  and  MN_336
REMARK   56  A    between atoms: _132  and  _134
REMARK   57  A    between atoms: _134  and  _135
REMARK   58  A    between atoms: _134  and  _137
REMARK   59  A    between atoms: _137  and  _138
REMARK   60  A    between atoms: _145  and  _146
REMARK   61  A    between atoms: _151  and  _153
REMARK   62  A    between atoms: _153  and  _154
REMARK   63  A    between atoms: _153  and  _156
REMARK   64  A    between atoms: _156  and  _157
REMARK   65  A    between atoms: _159  and  _161
REMARK   66  A    between atoms: _161  and  _162
REMARK   67  A    between atoms: _165  and  _167
REMARK   68  A    between atoms: _167  and  _168
REMARK   69  A    between atoms: _167  and  _170
REMARK   70  A    between atoms: _172  and  _174
REMARK   71  A    between atoms: _174  and  _175
REMARK   72  A    between atoms: _174  and  _177
REMARK   73  A    between atoms: _177  and  _178
REMARK   74  A    between atoms: _178  and  _179
REMARK   75  A    between atoms: _179  and  _180
REMARK   76  A    between atoms: _180  and  _181
REMARK   77  A    between atoms: _185  and  _187
REMARK   78  A    between atoms: _187  and  _188
REMARK   79  A    between atoms: _187  and  _190
REMARK   80  A    between atoms: _190  and  _191
REMARK   81  A    between atoms: _194  and  _196
REMARK   82  A    between atoms: _196  and  _197
REMARK   83  A    between atoms: _196  and  _199
REMARK   84  A    between atoms: _199  and  _200
REMARK   85  A    between atoms: _203  and  _205
REMARK   86  A    between atoms: _205  and  _206
REMARK   87  A    between atoms: _205  and  _208
REMARK   88  A    between atoms: _208  and  _209
REMARK   89  A    between atoms: _209  and  _210
REMARK   90  A    between atoms: _210  and  MN_336
REMARK   91  A    between atoms: _212  and  _214
REMARK   92  A    between atoms: _214  and  _215
REMARK   93  A    between atoms: _214  and  _217
REMARK   94  A    between atoms: _217  and  _218
REMARK   95  A    between atoms: _221  and  _223
REMARK   96  A    between atoms: _223  and  _224
REMARK   97  A    between atoms: _223  and  _226
REMARK   98  A    between atoms: _226  and  _227
REMARK   99  A    between atoms: _227  and  _228
REMARK  100  A    between atoms: _231  and  _233
REMARK  101  A    between atoms: _233  and  _234
REMARK  102  A    between atoms: _233  and  _236
REMARK  103  A    between atoms: _236  and  _237
REMARK  104  A    between atoms: _243  and  _245
REMARK  105  A    between atoms: _245  and  _246
REMARK  106  A    between atoms: _248  and  _250
REMARK  107  A    between atoms: _250  and  _251
REMARK  108  A    between atoms: _250  and  _253
REMARK  109  A    between atoms: _256  and  _258
REMARK  110  A    between atoms: _258  and  _259
REMARK  111  A    between atoms: _258  and  _261
REMARK  112  A    between atoms: _261  and  _262
REMARK  113  A    between atoms: _267  and  _269
REMARK  114  A    between atoms: _269  and  _270
REMARK  115  A    between atoms: _269  and  _272
REMARK  116  A    between atoms: _272  and  _273
REMARK  117  A    between atoms: _273  and  _274
REMARK  118  A    between atoms: _274  and  _275
REMARK  119  A    between atoms: _284  and  _286
REMARK  120  A    between atoms: _286  and  _287
REMARK  121  A    between atoms: _286  and  _289
REMARK  122  A    between atoms: _289  and  _290
REMARK  123  A    between atoms: _293  and  _295
REMARK  124  A    between atoms: _295  and  _296
REMARK  125  A    between atoms: _299  and  _301
REMARK  126  A    between atoms: _301  and  _302
REMARK  127  A    between atoms: _304  and  _306
REMARK  128  A    between atoms: _306  and  _307
REMARK  129  A    between atoms: _310  and  _312
REMARK  130  A    between atoms: _312  and  _313
REMARK  131  A    between atoms: _317  and  _318
REMARK  132  A    between atoms: _323  and  _325
REMARK  133  A    between atoms: _325  and  _326
REMARK  134  A    between atoms: _325  and  _328
REMARK  135  A    between atoms: _328  and  _329
REMARK                            x       y       z     vdW  Elec       q    Type
REMARK                         _______ _______ _______ _____ _____    ______ ____
ROOT
ATOM      1  O   HOH     1       8.446   4.902  43.588  0.00  0.00    +0.000 OA
ENDROOT
TORSDOF 0
REMARK  Name = ../refined-set-2016/3mof/3mof_pocket.pdb
REMARK  135 active torsions:
REMARK  status: ('A' for Active; 'I' for Inactive)
REMARK    1  A    between atoms: _1  and  _3
REMARK    2  A    between atoms: _3  and  _4
REMARK    3  A    between atoms: _7  and  _9
REMARK    4  A    between atoms: _9  and  _10
REMARK    5  A    between atoms: _9  and  _12
REMARK    6  A    between atoms: _12  and  _13
REMARK    7  A    between atoms: _13  and  _14
REMARK    8  A    between atoms: _14  and  _15
REMARK    9  A    between atoms: _24  and  _26
REMARK   10  A    between atoms: _26  and  _27
REMARK   11  A    between atoms: _26  and  _29
REMARK   12  A    between atoms: _29  and  _30
REMARK   13  A    between atoms: _30  and  _31
REMARK   14  A    between atoms: _34  and  _36
REMARK   15  A    between atoms: _36  and  _37
REMARK   16  A    between atoms: _36  and  _39
REMARK   17  A    between atoms: _39  and  _40
REMARK   18  A    between atoms: _45  and  _46
REMARK   19  A    between atoms: _48  and  _50
REMARK   20  A    between atoms: _50  and  _51
REMARK   21  A    between atoms: _53  and  _55
REMARK   22  A    between atoms: _55  and  _56
REMARK   23  A    between atoms: _58  and  _60
REMARK   24  A    between atoms: _60  and  _61
REMARK   25  A    between atoms: _60  and  _63
REMARK   26  A    between atoms: _63  and  _64
REMARK   27  A    between atoms: _69  and  _71
REMARK   28  A    between atoms: _71  and  _72
REMARK   29  A    between atoms: _71  and  _74
REMARK   30  A    between atoms: _74  and  _75
REMARK   31  A    between atoms: _75  and  _76
REMARK   32  A    between atoms: _76  and  _77
REMARK   33  A    between atoms: _77  and  _78
REMARK   34  A    between atoms: _82  and  _84
REMARK   35  A    between atoms: _84  and  _85
REMARK   36  A    between atoms: _84  and  _87
REMARK   37  A    between atoms: _87  and  _88
REMARK   38  A    between atoms: _88  and  _89
REMARK   39  A    between atoms: _89  and  _90
REMARK   40  A    between atoms: _90  and  _91
REMARK   41  A    between atoms: _95  and  _97
REMARK   42  A    between atoms: _97  and  _98
REMARK   43  A    between atoms: _97  and  _100
REMARK   44  A    between atoms: _100  and  _101
REMARK   45  A    between atoms: _104  and  _106
REMARK   46  A    between atoms: _106  and  _107
REMARK   47  A    between atoms: _106  and  _109
REMARK   48  A    between atoms: _109  and  _110
REMARK   49  A    between atoms: _110  and  _111
REMARK   50  A    between atoms: _111  and  _112
REMARK   51  A    between atoms: _121  and  _123
REMARK   52  A    between atoms: _123  and  _124
REMARK   53  A    between atoms: _123  and  _126
REMARK   54  A    between atoms: _126  and  _127
REMARK   55  A    between atoms: _131  and  MN_336
REMARK   56  A    between atoms: _132  and  _134
REMARK   57  A    between atoms: _134  and  _135
REMARK   58  A    between atoms: _134  and  _137
REMARK   59  A    between atoms: _137  and  _138
REMARK   60  A    between atoms: _145  and  _146
REMARK   61  A    between atoms: _151  and  _153
REMARK   62  A    between atoms: _153  and  _154
REMARK   63  A    between atoms: _153  and  _156
REMARK   64  A    between atoms: _156  and  _157
REMARK   65  A    between atoms: _159  and  _161
REMARK   66  A    between atoms: _161  and  _162
REMARK   67  A    between atoms: _165  and  _167
REMARK   68  A    between atoms: _167  and  _168
REMARK   69  A    between atoms: _167  and  _170
REMARK   70  A    between atoms: _172  and  _174
REMARK   71  A    between atoms: _174  and  _175
REMARK   72  A    between atoms: _174  and  _177
REMARK   73  A    between atoms: _177  and  _178
REMARK   74  A    between atoms: _178  and  _179
REMARK   75  A    between atoms: _179  and  _180
REMARK   76  A    between atoms: _180  and  _181
REMARK   77  A    between atoms: _185  and  _187
REMARK   78  A    between atoms: _187  and  _188
REMARK   79  A    between atoms: _187  and  _190
REMARK   80  A    between atoms: _190  and  _191
REMARK   81  A    between atoms: _194  and  _196
REMARK   82  A    between atoms: _196  and  _197
REMARK   83  A    between atoms: _196  and  _199
REMARK   84  A    between atoms: _199  and  _200
REMARK   85  A    between atoms: _203  and  _205
REMARK   86  A    between atoms: _205  and  _206
REMARK   87  A    between atoms: _205  and  _208
REMARK   88  A    between atoms: _208  and  _209
REMARK   89  A    between atoms: _209  and  _210
REMARK   90  A    between atoms: _210  and  MN_336
REMARK   91  A    between atoms: _212  and  _214
REMARK   92  A    between atoms: _214  and  _215
REMARK   93  A    between atoms: _214  and  _217
REMARK   94  A    between atoms: _217  and  _218
REMARK   95  A    between atoms: _221  and  _223
REMARK   96  A    between atoms: _223  and  _224
REMARK   97  A    between atoms: _223  and  _226
REMARK   98  A    between atoms: _226  and  _227
REMARK   99  A    between atoms: _227  and  _228
REMARK  100  A    between atoms: _231  and  _233
REMARK  101  A    between atoms: _233  and  _234
REMARK  102  A    between atoms: _233  and  _236
REMARK  103  A    between atoms: _236  and  _237
REMARK  104  A    between atoms: _243  and  _245
REMARK  105  A    between atoms: _245  and  _246
REMARK  106  A    between atoms: _248  and  _250
REMARK  107  A    between atoms: _250  and  _251
REMARK  108  A    between atoms: _250  and  _253
REMARK  109  A    between atoms: _256  and  _258
REMARK  110  A    between atoms: _258  and  _259
REMARK  111  A    between atoms: _258  and  _261
REMARK  112  A    between atoms: _261  and  _262
REMARK  113  A    between atoms: _267  and  _269
REMARK  114  A    between atoms: _269  and  _270
REMARK  115  A    between atoms: _269  and  _272
REMARK  116  A    between atoms: _272  and  _273
REMARK  117  A    between atoms: _273  and  _274
REMARK  118  A    between atoms: _274  and  _275
REMARK  119  A    between atoms: _284  and  _286
REMARK  120  A    between atoms: _286  and  _287
REMARK  121  A    between atoms: _286  and  _289
REMARK  122  A    between atoms: _289  and  _290
REMARK  123  A    between atoms: _293  and  _295
REMARK  124  A    between atoms: _295  and  _296
REMARK  125  A    between atoms: _299  and  _301
REMARK  126  A    between atoms: _301  and  _302
REMARK  127  A    between atoms: _304  and  _306
REMARK  128  A    between atoms: _306  and  _307
REMARK  129  A    between atoms: _310  and  _312
REMARK  130  A    between atoms: _312  and  _313
REMARK  131  A    between atoms: _317  and  _318
REMARK  132  A    between atoms: _323  and  _325
REMARK  133  A    between atoms: _325  and  _326
REMARK  134  A    between atoms: _325  and  _328
REMARK  135  A    between atoms: _328  and  _329
REMARK                            x       y       z     vdW  Elec       q    Type
REMARK                         _______ _______ _______ _____ _____    ______ ____
ROOT
ATOM      1  O   HOH     1       3.448   5.215  46.345  0.00  0.00    +0.000 OA
ENDROOT
TORSDOF 0
