REMARK  Name = ../refined-set-2016/2r3t/2r3t_pocket.pdb
REMARK  231 active torsions:
REMARK  status: ('A' for Active; 'I' for Inactive)
REMARK    1  A    between atoms: _1  and  _3
REMARK    2  A    between atoms: _3  and  _4
REMARK    3  A    between atoms: _3  and  _6
REMARK    4  A    between atoms: _6  and  _7
REMARK    5  A    between atoms: _7  and  _8
REMARK    6  A    between atoms: _8  and  _9
REMARK    7  A    between atoms: _18  and  _20
REMARK    8  A    between atoms: _20  and  _21
REMARK    9  A    between atoms: _20  and  _23
REMARK   10  A    between atoms: _23  and  _24
REMARK   11  A    between atoms: _27  and  _29
REMARK   12  A    between atoms: _29  and  _30
REMARK   13  A    between atoms: _29  and  _32
REMARK   14  A    between atoms: _32  and  _33
REMARK   15  A    between atoms: _36  and  _38
REMARK   16  A    between atoms: _38  and  _39
REMARK   17  A    between atoms: _38  and  _41
REMARK   18  A    between atoms: _41  and  _42
REMARK   19  A    between atoms: _45  and  _47
REMARK   20  A    between atoms: _47  and  _48
REMARK   21  A    between atoms: _47  and  _50
REMARK   22  A    between atoms: _50  and  _51
REMARK   23  A    between atoms: _54  and  _56
REMARK   24  A    between atoms: _56  and  _57
REMARK   25  A    between atoms: _59  and  _61
REMARK   26  A    between atoms: _61  and  _62
REMARK   27  A    between atoms: _65  and  _67
REMARK   28  A    between atoms: _67  and  _68
REMARK   29  A    between atoms: _67  and  _70
REMARK   30  A    between atoms: _70  and  _71
REMARK   31  A    between atoms: _74  and  _76
REMARK   32  A    between atoms: _76  and  _77
REMARK   33  A    between atoms: _76  and  _79
REMARK   34  A    between atoms: _79  and  _80
REMARK   35  A    between atoms: _83  and  _85
REMARK   36  A    between atoms: _85  and  _86
REMARK   37  A    between atoms: _85  and  _88
REMARK   38  A    between atoms: _88  and  _89
REMARK   39  A    between atoms: _92  and  _94
REMARK   40  A    between atoms: _94  and  _95
REMARK   41  A    between atoms: _94  and  _97
REMARK   42  A    between atoms: _100  and  _102
REMARK   43  A    between atoms: _102  and  _103
REMARK   44  A    between atoms: _102  and  _105
REMARK   45  A    between atoms: _105  and  _106
REMARK   46  A    between atoms: _106  and  _107
REMARK   47  A    between atoms: _107  and  _108
REMARK   48  A    between atoms: _108  and  _109
REMARK   49  A    between atoms: _113  and  _115
REMARK   50  A    between atoms: _115  and  _116
REMARK   51  A    between atoms: _115  and  _118
REMARK   52  A    between atoms: _118  and  _119
REMARK   53  A    between atoms: _119  and  _120
REMARK   54  A    between atoms: _122  and  _124
REMARK   55  A    between atoms: _124  and  _125
REMARK   56  A    between atoms: _124  and  _127
REMARK   57  A    between atoms: _127  and  _128
REMARK   58  A    between atoms: _131  and  _133
REMARK   59  A    between atoms: _133  and  _134
REMARK   60  A    between atoms: _136  and  _138
REMARK   61  A    between atoms: _138  and  _139
REMARK   62  A    between atoms: _141  and  _143
REMARK   63  A    between atoms: _143  and  _144
REMARK   64  A    between atoms: _143  and  _146
REMARK   65  A    between atoms: _149  and  _151
REMARK   66  A    between atoms: _151  and  _152
REMARK   67  A    between atoms: _154  and  _156
REMARK   68  A    between atoms: _156  and  _157
REMARK   69  A    between atoms: _159  and  _161
REMARK   70  A    between atoms: _161  and  _162
REMARK   71  A    between atoms: _161  and  _164
REMARK   72  A    between atoms: _164  and  _165
REMARK   73  A    between atoms: _171  and  _173
REMARK   74  A    between atoms: _173  and  _174
REMARK   75  A    between atoms: _173  and  _176
REMARK   76  A    between atoms: _176  and  _177
REMARK   77  A    between atoms: _180  and  _182
REMARK   78  A    between atoms: _182  and  _183
REMARK   79  A    between atoms: _182  and  _185
REMARK   80  A    between atoms: _188  and  _190
REMARK   81  A    between atoms: _190  and  _191
REMARK   82  A    between atoms: _190  and  _193
REMARK   83  A    between atoms: _193  and  _194
REMARK   84  A    between atoms: _197  and  _199
REMARK   85  A    between atoms: _199  and  _200
REMARK   86  A    between atoms: _199  and  _202
REMARK   87  A    between atoms: _202  and  _203
REMARK   88  A    between atoms: _207  and  _208
REMARK   89  A    between atoms: _213  and  _215
REMARK   90  A    between atoms: _215  and  _216
REMARK   91  A    between atoms: _215  and  _218
REMARK   92  A    between atoms: _221  and  _223
REMARK   93  A    between atoms: _223  and  _224
REMARK   94  A    between atoms: _223  and  _226
REMARK   95  A    between atoms: _226  and  _227
REMARK   96  A    between atoms: _232  and  _234
REMARK   97  A    between atoms: _234  and  _235
REMARK   98  A    between atoms: _234  and  _237
REMARK   99  A    between atoms: _237  and  _238
REMARK  100  A    between atoms: _241  and  _243
REMARK  101  A    between atoms: _243  and  _244
REMARK  102  A    between atoms: _243  and  _246
REMARK  103  A    between atoms: _246  and  _247
REMARK  104  A    between atoms: _250  and  _252
REMARK  105  A    between atoms: _252  and  _253
REMARK  106  A    between atoms: _255  and  _257
REMARK  107  A    between atoms: _257  and  _258
REMARK  108  A    between atoms: _257  and  _260
REMARK  109  A    between atoms: _260  and  _261
REMARK  110  A    between atoms: _261  and  _262
REMARK  111  A    between atoms: _262  and  _263
REMARK  112  A    between atoms: _272  and  _274
REMARK  113  A    between atoms: _274  and  _275
REMARK  114  A    between atoms: _274  and  _277
REMARK  115  A    between atoms: _277  and  _278
REMARK  116  A    between atoms: _283  and  _285
REMARK  117  A    between atoms: _285  and  _286
REMARK  118  A    between atoms: _285  and  _288
REMARK  119  A    between atoms: _288  and  _289
REMARK  120  A    between atoms: _289  and  _290
REMARK  121  A    between atoms: _290  and  _291
REMARK  122  A    between atoms: _300  and  _302
REMARK  123  A    between atoms: _302  and  _303
REMARK  124  A    between atoms: _302  and  _305
REMARK  125  A    between atoms: _305  and  _306
REMARK  126  A    between atoms: _309  and  _311
REMARK  127  A    between atoms: _311  and  _312
REMARK  128  A    between atoms: _311  and  _314
REMARK  129  A    between atoms: _314  and  _315
REMARK  130  A    between atoms: _318  and  _320
REMARK  131  A    between atoms: _320  and  _321
REMARK  132  A    between atoms: _320  and  _323
REMARK  133  A    between atoms: _323  and  _324
REMARK  134  A    between atoms: _327  and  _329
REMARK  135  A    between atoms: _329  and  _330
REMARK  136  A    between atoms: _329  and  _332
REMARK  137  A    between atoms: _332  and  _333
REMARK  138  A    between atoms: _336  and  _338
REMARK  139  A    between atoms: _338  and  _339
REMARK  140  A    between atoms: _341  and  _343
REMARK  141  A    between atoms: _343  and  _344
REMARK  142  A    between atoms: _347  and  _349
REMARK  143  A    between atoms: _349  and  _350
REMARK  144  A    between atoms: _349  and  _352
REMARK  145  A    between atoms: _352  and  _353
REMARK  146  A    between atoms: _356  and  _358
REMARK  147  A    between atoms: _358  and  _359
REMARK  148  A    between atoms: _358  and  _361
REMARK  149  A    between atoms: _361  and  _362
REMARK  150  A    between atoms: _365  and  _367
REMARK  151  A    between atoms: _367  and  _368
REMARK  152  A    between atoms: _367  and  _370
REMARK  153  A    between atoms: _370  and  _371
REMARK  154  A    between atoms: _374  and  _376
REMARK  155  A    between atoms: _376  and  _377
REMARK  156  A    between atoms: _376  and  _379
REMARK  157  A    between atoms: _382  and  _384
REMARK  158  A    between atoms: _384  and  _385
REMARK  159  A    between atoms: _384  and  _387
REMARK  160  A    between atoms: _387  and  _388
REMARK  161  A    between atoms: _388  and  _389
REMARK  162  A    between atoms: _389  and  _390
REMARK  163  A    between atoms: _390  and  _391
REMARK  164  A    between atoms: _395  and  _397
REMARK  165  A    between atoms: _397  and  _398
REMARK  166  A    between atoms: _397  and  _400
REMARK  167  A    between atoms: _400  and  _401
REMARK  168  A    between atoms: _401  and  _402
REMARK  169  A    between atoms: _404  and  _406
REMARK  170  A    between atoms: _406  and  _407
REMARK  171  A    between atoms: _406  and  _409
REMARK  172  A    between atoms: _409  and  _410
REMARK  173  A    between atoms: _413  and  _415
REMARK  174  A    between atoms: _415  and  _416
REMARK  175  A    between atoms: _418  and  _420
REMARK  176  A    between atoms: _420  and  _421
REMARK  177  A    between atoms: _423  and  _425
REMARK  178  A    between atoms: _425  and  _426
REMARK  179  A    between atoms: _425  and  _428
REMARK  180  A    between atoms: _431  and  _433
REMARK  181  A    between atoms: _433  and  _434
REMARK  182  A    between atoms: _436  and  _438
REMARK  183  A    between atoms: _438  and  _439
REMARK  184  A    between atoms: _441  and  _443
REMARK  185  A    between atoms: _443  and  _444
REMARK  186  A    between atoms: _443  and  _446
REMARK  187  A    between atoms: _446  and  _447
REMARK  188  A    between atoms: _453  and  _455
REMARK  189  A    between atoms: _455  and  _456
REMARK  190  A    between atoms: _455  and  _458
REMARK  191  A    between atoms: _458  and  _459
REMARK  192  A    between atoms: _462  and  _464
REMARK  193  A    between atoms: _464  and  _465
REMARK  194  A    between atoms: _464  and  _467
REMARK  195  A    between atoms: _470  and  _472
REMARK  196  A    between atoms: _472  and  _473
REMARK  197  A    between atoms: _472  and  _475
REMARK  198  A    between atoms: _475  and  _476
REMARK  199  A    between atoms: _480  and  _481
REMARK  200  A    between atoms: _486  and  _488
REMARK  201  A    between atoms: _488  and  _489
REMARK  202  A    between atoms: _488  and  _491
REMARK  203  A    between atoms: _491  and  _492
REMARK  204  A    between atoms: _496  and  _497
REMARK  205  A    between atoms: _502  and  _504
REMARK  206  A    between atoms: _504  and  _505
REMARK  207  A    between atoms: _504  and  _507
REMARK  208  A    between atoms: _510  and  _512
REMARK  209  A    between atoms: _512  and  _513
REMARK  210  A    between atoms: _512  and  _515
REMARK  211  A    between atoms: _515  and  _516
REMARK  212  A    between atoms: _521  and  _523
REMARK  213  A    between atoms: _523  and  _524
REMARK  214  A    between atoms: _523  and  _526
REMARK  215  A    between atoms: _526  and  _527
REMARK  216  A    between atoms: _530  and  _532
REMARK  217  A    between atoms: _532  and  _533
REMARK  218  A    between atoms: _532  and  _535
REMARK  219  A    between atoms: _535  and  _536
REMARK  220  A    between atoms: _539  and  _541
REMARK  221  A    between atoms: _541  and  _542
REMARK  222  A    between atoms: _544  and  _546
REMARK  223  A    between atoms: _546  and  _547
REMARK  224  A    between atoms: _546  and  _549
REMARK  225  A    between atoms: _549  and  _550
REMARK  226  A    between atoms: _550  and  _551
REMARK  227  A    between atoms: _551  and  _552
REMARK  228  A    between atoms: _561  and  _563
REMARK  229  A    between atoms: _563  and  _564
REMARK  230  A    between atoms: _563  and  _566
REMARK  231  A    between atoms: _566  and  _567
REMARK                            x       y       z     vdW  Elec       q    Type
REMARK                         _______ _______ _______ _____ _____    ______ ____
ROOT
ATOM      1  NE  ARG A   1     -21.851  21.870 -15.715  0.00  0.00    -0.265 N 
ATOM      2  CZ  ARG A   1     -20.838  22.340 -15.005  0.00  0.00    +0.342 C 
ATOM      3  NH2 ARG A   1     -20.631  21.963 -13.754  0.00  0.00    -0.292 N 
ATOM      4 HH21 ARG A   1     -19.826  22.350 -13.221  0.00  0.00    +0.255 HD
ATOM      5 HH22 ARG A   1     -21.273  21.280 -13.304  0.00  0.00    +0.255 HD
ATOM      6  NH1 ARG A   1     -20.004  23.215 -15.554  0.00  0.00    -0.292 N 
ATOM      7 HH11 ARG A   1     -19.206  23.589 -15.002  0.00  0.00    +0.255 HD
ATOM      8 HH12 ARG A   1     -20.149  23.526 -16.536  0.00  0.00    +0.255 HD
ATOM      9  HE  ARG A   1     -21.938  22.223 -16.689  0.00  0.00    +0.259 HD
ENDROOT
BRANCH   1  10
ATOM     10  CD  ARG A   1     -22.859  20.909 -15.278  0.00  0.00    +0.174 C 
BRANCH  10  11
ATOM     11  CG  ARG A   1     -23.361  20.085 -16.454  0.00  0.00    +0.045 C 
BRANCH  11  12
ATOM     12  CB  ARG A   1     -24.102  18.836 -16.009  0.00  0.00    +0.029 C 
BRANCH  12  13
ATOM     13  CA  ARG A   1     -24.802  18.098 -17.146  0.00  0.00    +0.133 C 
BRANCH  13  14
ATOM     14  N   ARG A   1     -25.944  18.849 -17.656  0.00  0.00    -0.239 NA
ATOM     15  H   ARG A   1     -26.180  19.787 -17.274  0.00  0.00    +0.142 HD
ENDBRANCH  13  14
BRANCH  13  16
ATOM     16  C   ARG A   1     -25.252  16.721 -16.662  0.00  0.00    +0.224 C 
ATOM     17  O   ARG A   1     -26.264  16.623 -15.967  0.00  0.00    -0.287 OA
ENDBRANCH  13  16
ENDBRANCH  12  13
ENDBRANCH  11  12
ENDBRANCH  10  11
ENDBRANCH   1  10
TORSDOF 6
REMARK  Name = ../refined-set-2016/2r3t/2r3t_pocket.pdb
REMARK  231 active torsions:
REMARK  status: ('A' for Active; 'I' for Inactive)
REMARK    1  A    between atoms: _1  and  _3
REMARK    2  A    between atoms: _3  and  _4
REMARK    3  A    between atoms: _3  and  _6
REMARK    4  A    between atoms: _6  and  _7
REMARK    5  A    between atoms: _7  and  _8
REMARK    6  A    between atoms: _8  and  _9
REMARK    7  A    between atoms: _18  and  _20
REMARK    8  A    between atoms: _20  and  _21
REMARK    9  A    between atoms: _20  and  _23
REMARK   10  A    between atoms: _23  and  _24
REMARK   11  A    between atoms: _27  and  _29
REMARK   12  A    between atoms: _29  and  _30
REMARK   13  A    between atoms: _29  and  _32
REMARK   14  A    between atoms: _32  and  _33
REMARK   15  A    between atoms: _36  and  _38
REMARK   16  A    between atoms: _38  and  _39
REMARK   17  A    between atoms: _38  and  _41
REMARK   18  A    between atoms: _41  and  _42
REMARK   19  A    between atoms: _45  and  _47
REMARK   20  A    between atoms: _47  and  _48
REMARK   21  A    between atoms: _47  and  _50
REMARK   22  A    between atoms: _50  and  _51
REMARK   23  A    between atoms: _54  and  _56
REMARK   24  A    between atoms: _56  and  _57
REMARK   25  A    between atoms: _59  and  _61
REMARK   26  A    between atoms: _61  and  _62
REMARK   27  A    between atoms: _65  and  _67
REMARK   28  A    between atoms: _67  and  _68
REMARK   29  A    between atoms: _67  and  _70
REMARK   30  A    between atoms: _70  and  _71
REMARK   31  A    between atoms: _74  and  _76
REMARK   32  A    between atoms: _76  and  _77
REMARK   33  A    between atoms: _76  and  _79
REMARK   34  A    between atoms: _79  and  _80
REMARK   35  A    between atoms: _83  and  _85
REMARK   36  A    between atoms: _85  and  _86
REMARK   37  A    between atoms: _85  and  _88
REMARK   38  A    between atoms: _88  and  _89
REMARK   39  A    between atoms: _92  and  _94
REMARK   40  A    between atoms: _94  and  _95
REMARK   41  A    between atoms: _94  and  _97
REMARK   42  A    between atoms: _100  and  _102
REMARK   43  A    between atoms: _102  and  _103
REMARK   44  A    between atoms: _102  and  _105
REMARK   45  A    between atoms: _105  and  _106
REMARK   46  A    between atoms: _106  and  _107
REMARK   47  A    between atoms: _107  and  _108
REMARK   48  A    between atoms: _108  and  _109
REMARK   49  A    between atoms: _113  and  _115
REMARK   50  A    between atoms: _115  and  _116
REMARK   51  A    between atoms: _115  and  _118
REMARK   52  A    between atoms: _118  and  _119
REMARK   53  A    between atoms: _119  and  _120
REMARK   54  A    between atoms: _122  and  _124
REMARK   55  A    between atoms: _124  and  _125
REMARK   56  A    between atoms: _124  and  _127
REMARK   57  A    between atoms: _127  and  _128
REMARK   58  A    between atoms: _131  and  _133
REMARK   59  A    between atoms: _133  and  _134
REMARK   60  A    between atoms: _136  and  _138
REMARK   61  A    between atoms: _138  and  _139
REMARK   62  A    between atoms: _141  and  _143
REMARK   63  A    between atoms: _143  and  _144
REMARK   64  A    between atoms: _143  and  _146
REMARK   65  A    between atoms: _149  and  _151
REMARK   66  A    between atoms: _151  and  _152
REMARK   67  A    between atoms: _154  and  _156
REMARK   68  A    between atoms: _156  and  _157
REMARK   69  A    between atoms: _159  and  _161
REMARK   70  A    between atoms: _161  and  _162
REMARK   71  A    between atoms: _161  and  _164
REMARK   72  A    between atoms: _164  and  _165
REMARK   73  A    between atoms: _171  and  _173
REMARK   74  A    between atoms: _173  and  _174
REMARK   75  A    between atoms: _173  and  _176
REMARK   76  A    between atoms: _176  and  _177
REMARK   77  A    between atoms: _180  and  _182
REMARK   78  A    between atoms: _182  and  _183
REMARK   79  A    between atoms: _182  and  _185
REMARK   80  A    between atoms: _188  and  _190
REMARK   81  A    between atoms: _190  and  _191
REMARK   82  A    between atoms: _190  and  _193
REMARK   83  A    between atoms: _193  and  _194
REMARK   84  A    between atoms: _197  and  _199
REMARK   85  A    between atoms: _199  and  _200
REMARK   86  A    between atoms: _199  and  _202
REMARK   87  A    between atoms: _202  and  _203
REMARK   88  A    between atoms: _207  and  _208
REMARK   89  A    between atoms: _213  and  _215
REMARK   90  A    between atoms: _215  and  _216
REMARK   91  A    between atoms: _215  and  _218
REMARK   92  A    between atoms: _221  and  _223
REMARK   93  A    between atoms: _223  and  _224
REMARK   94  A    between atoms: _223  and  _226
REMARK   95  A    between atoms: _226  and  _227
REMARK   96  A    between atoms: _232  and  _234
REMARK   97  A    between atoms: _234  and  _235
REMARK   98  A    between atoms: _234  and  _237
REMARK   99  A    between atoms: _237  and  _238
REMARK  100  A    between atoms: _241  and  _243
REMARK  101  A    between atoms: _243  and  _244
REMARK  102  A    between atoms: _243  and  _246
REMARK  103  A    between atoms: _246  and  _247
REMARK  104  A    between atoms: _250  and  _252
REMARK  105  A    between atoms: _252  and  _253
REMARK  106  A    between atoms: _255  and  _257
REMARK  107  A    between atoms: _257  and  _258
REMARK  108  A    between atoms: _257  and  _260
REMARK  109  A    between atoms: _260  and  _261
REMARK  110  A    between atoms: _261  and  _262
REMARK  111  A    between atoms: _262  and  _263
REMARK  112  A    between atoms: _272  and  _274
REMARK  113  A    between atoms: _274  and  _275
REMARK  114  A    between atoms: _274  and  _277
REMARK  115  A    between atoms: _277  and  _278
REMARK  116  A    between atoms: _283  and  _285
REMARK  117  A    between atoms: _285  and  _286
REMARK  118  A    between atoms: _285  and  _288
REMARK  119  A    between atoms: _288  and  _289
REMARK  120  A    between atoms: _289  and  _290
REMARK  121  A    between atoms: _290  and  _291
REMARK  122  A    between atoms: _300  and  _302
REMARK  123  A    between atoms: _302  and  _303
REMARK  124  A    between atoms: _302  and  _305
REMARK  125  A    between atoms: _305  and  _306
REMARK  126  A    between atoms: _309  and  _311
REMARK  127  A    between atoms: _311  and  _312
REMARK  128  A    between atoms: _311  and  _314
REMARK  129  A    between atoms: _314  and  _315
REMARK  130  A    between atoms: _318  and  _320
REMARK  131  A    between atoms: _320  and  _321
REMARK  132  A    between atoms: _320  and  _323
REMARK  133  A    between atoms: _323  and  _324
REMARK  134  A    between atoms: _327  and  _329
REMARK  135  A    between atoms: _329  and  _330
REMARK  136  A    between atoms: _329  and  _332
REMARK  137  A    between atoms: _332  and  _333
REMARK  138  A    between atoms: _336  and  _338
REMARK  139  A    between atoms: _338  and  _339
REMARK  140  A    between atoms: _341  and  _343
REMARK  141  A    between atoms: _343  and  _344
REMARK  142  A    between atoms: _347  and  _349
REMARK  143  A    between atoms: _349  and  _350
REMARK  144  A    between atoms: _349  and  _352
REMARK  145  A    between atoms: _352  and  _353
REMARK  146  A    between atoms: _356  and  _358
REMARK  147  A    between atoms: _358  and  _359
REMARK  148  A    between atoms: _358  and  _361
REMARK  149  A    between atoms: _361  and  _362
REMARK  150  A    between atoms: _365  and  _367
REMARK  151  A    between atoms: _367  and  _368
REMARK  152  A    between atoms: _367  and  _370
REMARK  153  A    between atoms: _370  and  _371
REMARK  154  A    between atoms: _374  and  _376
REMARK  155  A    between atoms: _376  and  _377
REMARK  156  A    between atoms: _376  and  _379
REMARK  157  A    between atoms: _382  and  _384
REMARK  158  A    between atoms: _384  and  _385
REMARK  159  A    between atoms: _384  and  _387
REMARK  160  A    between atoms: _387  and  _388
REMARK  161  A    between atoms: _388  and  _389
REMARK  162  A    between atoms: _389  and  _390
REMARK  163  A    between atoms: _390  and  _391
REMARK  164  A    between atoms: _395  and  _397
REMARK  165  A    between atoms: _397  and  _398
REMARK  166  A    between atoms: _397  and  _400
REMARK  167  A    between atoms: _400  and  _401
REMARK  168  A    between atoms: _401  and  _402
REMARK  169  A    between atoms: _404  and  _406
REMARK  170  A    between atoms: _406  and  _407
REMARK  171  A    between atoms: _406  and  _409
REMARK  172  A    between atoms: _409  and  _410
REMARK  173  A    between atoms: _413  and  _415
REMARK  174  A    between atoms: _415  and  _416
REMARK  175  A    between atoms: _418  and  _420
REMARK  176  A    between atoms: _420  and  _421
REMARK  177  A    between atoms: _423  and  _425
REMARK  178  A    between atoms: _425  and  _426
REMARK  179  A    between atoms: _425  and  _428
REMARK  180  A    between atoms: _431  and  _433
REMARK  181  A    between atoms: _433  and  _434
REMARK  182  A    between atoms: _436  and  _438
REMARK  183  A    between atoms: _438  and  _439
REMARK  184  A    between atoms: _441  and  _443
REMARK  185  A    between atoms: _443  and  _444
REMARK  186  A    between atoms: _443  and  _446
REMARK  187  A    between atoms: _446  and  _447
REMARK  188  A    between atoms: _453  and  _455
REMARK  189  A    between atoms: _455  and  _456
REMARK  190  A    between atoms: _455  and  _458
REMARK  191  A    between atoms: _458  and  _459
REMARK  192  A    between atoms: _462  and  _464
REMARK  193  A    between atoms: _464  and  _465
REMARK  194  A    between atoms: _464  and  _467
REMARK  195  A    between atoms: _470  and  _472
REMARK  196  A    between atoms: _472  and  _473
REMARK  197  A    between atoms: _472  and  _475
REMARK  198  A    between atoms: _475  and  _476
REMARK  199  A    between atoms: _480  and  _481
REMARK  200  A    between atoms: _486  and  _488
REMARK  201  A    between atoms: _488  and  _489
REMARK  202  A    between atoms: _488  and  _491
REMARK  203  A    between atoms: _491  and  _492
REMARK  204  A    between atoms: _496  and  _497
REMARK  205  A    between atoms: _502  and  _504
REMARK  206  A    between atoms: _504  and  _505
REMARK  207  A    between atoms: _504  and  _507
REMARK  208  A    between atoms: _510  and  _512
REMARK  209  A    between atoms: _512  and  _513
REMARK  210  A    between atoms: _512  and  _515
REMARK  211  A    between atoms: _515  and  _516
REMARK  212  A    between atoms: _521  and  _523
REMARK  213  A    between atoms: _523  and  _524
REMARK  214  A    between atoms: _523  and  _526
REMARK  215  A    between atoms: _526  and  _527
REMARK  216  A    between atoms: _530  and  _532
REMARK  217  A    between atoms: _532  and  _533
REMARK  218  A    between atoms: _532  and  _535
REMARK  219  A    between atoms: _535  and  _536
REMARK  220  A    between atoms: _539  and  _541
REMARK  221  A    between atoms: _541  and  _542
REMARK  222  A    between atoms: _544  and  _546
REMARK  223  A    between atoms: _546  and  _547
REMARK  224  A    between atoms: _546  and  _549
REMARK  225  A    between atoms: _549  and  _550
REMARK  226  A    between atoms: _550  and  _551
REMARK  227  A    between atoms: _551  and  _552
REMARK  228  A    between atoms: _561  and  _563
REMARK  229  A    between atoms: _563  and  _564
REMARK  230  A    between atoms: _563  and  _566
REMARK  231  A    between atoms: _566  and  _567
REMARK                            x       y       z     vdW  Elec       q    Type
REMARK                         _______ _______ _______ _____ _____    ______ ____
ROOT
ATOM      1  C   GLY A   5     -11.621  14.360 -19.725  0.00  0.00    +0.243 C 
ATOM      2  N   ALA A   6     -12.046  13.839 -18.578  0.00  0.00    -0.297 N 
ATOM      3  H   ALA A   6     -13.048  13.580 -18.474  0.00  0.00    +0.150 HD
ATOM      4  O   GLY A   5     -10.429  14.643 -19.921  0.00  0.00    -0.273 OA
ENDROOT
BRANCH   2   5
ATOM      5  CA  ALA A   6     -11.128  13.625 -17.461  0.00  0.00    +0.149 C 
ATOM      6  CB  ALA A   6     -11.914  13.856 -16.173  0.00  0.00    +0.031 C 
BRANCH   5   7
ATOM      7  C   ALA A   6     -10.508  12.252 -17.433  0.00  0.00    +0.241 C 
ATOM      8  O   ALA A   6     -11.193  11.229 -17.408  0.00  0.00    -0.273 OA
ATOM      9  N   ASP A   7      -9.173  12.169 -17.426  0.00  0.00    -0.297 N 
ATOM     10  H   ASP A   7      -8.583  13.026 -17.428  0.00  0.00    +0.150 HD
BRANCH   9  11
ATOM     11  CA  ASP A   7      -8.567  10.836 -17.415  0.00  0.00    +0.160 C 
BRANCH  11  12
ATOM     12  C   ASP A   7      -8.899  10.120 -16.109  0.00  0.00    +0.241 C 
ATOM     13  N   ASP A   8      -8.817  10.871 -15.017  0.00  0.00    -0.297 N 
ATOM     14  H   ASP A   8      -8.581  11.879 -15.113  0.00  0.00    +0.150 HD
ATOM     15  O   ASP A   7      -9.204   8.932 -16.070  0.00  0.00    -0.273 OA
BRANCH  13  16
ATOM     16  CA  ASP A   8      -9.048  10.322 -13.693  0.00  0.00    +0.160 C 
BRANCH  16  17
ATOM     17  C   ASP A   8     -10.160  11.062 -12.961  0.00  0.00    +0.241 C 
ATOM     18  N   THR A   9     -10.743  10.376 -12.007  0.00  0.00    -0.295 N 
ATOM     19  H   THR A   9     -10.461   9.380 -11.901  0.00  0.00    +0.150 HD
ATOM     20  O   ASP A   8     -10.460  12.212 -13.263  0.00  0.00    -0.273 OA
BRANCH  18  21
ATOM     21  CA  THR A   9     -11.748  10.881 -11.083  0.00  0.00    +0.176 C 
BRANCH  21  22
ATOM     22  C   THR A   9     -11.139  11.888 -10.111  0.00  0.00    +0.243 C 
ATOM     23  O   THR A   9     -10.028  11.633  -9.620  0.00  0.00    -0.273 OA
ATOM     24  N   VAL A  10     -11.842  12.978  -9.860  0.00  0.00    -0.298 N 
ATOM     25  H   VAL A  10     -12.753  13.099 -10.348  0.00  0.00    +0.150 HD
BRANCH  24  26
ATOM     26  CA  VAL A  10     -11.411  14.021  -8.937  0.00  0.00    +0.137 C 
BRANCH  26  27
ATOM     27  CB  VAL A  10     -10.839  15.281  -9.616  0.00  0.00    +0.026 C 
ATOM     28  CG2 VAL A  10     -10.044  16.092  -8.589  0.00  0.00    +0.002 C 
ATOM     29  CG1 VAL A  10     -10.002  14.912 -10.825  0.00  0.00    +0.002 C 
ENDBRANCH  26  27
BRANCH  26  30
ATOM     30  C   VAL A  10     -12.569  14.505  -8.065  0.00  0.00    +0.227 C 
ATOM     31  O   VAL A  10     -13.571  14.979  -8.583  0.00  0.00    -0.286 OA
ENDBRANCH  26  30
ENDBRANCH  24  26
ENDBRANCH  21  22
BRANCH  21  32
ATOM     32  CB  THR A   9     -12.339   9.678 -10.317  0.00  0.00    +0.137 C 
ATOM     33  CG2 THR A   9     -13.258  10.135  -9.207  0.00  0.00    +0.034 C 
BRANCH  32  34
ATOM     34  OG1 THR A   9     -13.093   8.888 -11.246  0.00  0.00    -0.382 OA
ATOM     35  HG1 THR A   9     -12.496   8.573 -11.970  0.00  0.00    +0.210 HD
ENDBRANCH  32  34
ENDBRANCH  21  32
ENDBRANCH  18  21
ENDBRANCH  16  17
BRANCH  16  36
ATOM     36  CB  ASP A   8      -7.768  10.408 -12.857  0.00  0.00    +0.143 C 
BRANCH  36  37
ATOM     37  CG  ASP A   8      -6.862   9.211 -13.107  0.00  0.00    +0.367 C 
ATOM     38  OD2 ASP A   8      -7.378   8.077 -13.100  0.00  0.00    -0.246 OA
ATOM     39  OD1 ASP A   8      -5.652   9.437 -13.304  0.00  0.00    -0.246 OA
ENDBRANCH  36  37
ENDBRANCH  16  36
ENDBRANCH  13  16
ENDBRANCH  11  12
BRANCH  11  40
ATOM     40  CB  ASP A   7      -7.064  10.924 -17.586  0.00  0.00    +0.143 C 
BRANCH  40  41
ATOM     41  CG  ASP A   7      -6.594  11.561 -18.876  0.00  0.00    +0.367 C 
ATOM     42  OD2 ASP A   7      -5.469  12.104 -18.842  0.00  0.00    -0.246 OA
ATOM     43  OD1 ASP A   7      -7.301  11.517 -19.903  0.00  0.00    -0.246 OA
ENDBRANCH  40  41
ENDBRANCH  11  40
ENDBRANCH   9  11
ENDBRANCH   5   7
ENDBRANCH   2   5
BRANCH   1  44
ATOM     44  CA  GLY A   5     -12.689  14.580 -20.781  0.00  0.00    +0.176 C 
BRANCH  44  46
ATOM     45  C   THR A   4     -13.944  12.497 -20.941  0.00  0.00    +0.243 C 
ATOM     46  N   GLY A   5     -13.876  13.761 -20.561  0.00  0.00    -0.295 N 
ATOM     47  H   GLY A   5     -14.698  14.187 -20.088  0.00  0.00    +0.150 HD
ATOM     48  O   THR A   4     -13.031  11.930 -21.557  0.00  0.00    -0.273 OA
BRANCH  45  49
ATOM     49  CA  THR A   4     -15.219  11.768 -20.557  0.00  0.00    +0.176 C 
BRANCH  49  52
ATOM     50  C   ASP A   3     -15.742  12.632 -18.304  0.00  0.00    +0.241 C 
ATOM     51  O   ASP A   3     -14.688  12.176 -17.852  0.00  0.00    -0.273 OA
ATOM     52  N   THR A   4     -16.033  12.496 -19.599  0.00  0.00    -0.295 N 
ATOM     53  H   THR A   4     -16.905  12.943 -19.947  0.00  0.00    +0.150 HD
BRANCH  50  54
ATOM     54  CA  ASP A   3     -16.757  13.403 -17.453  0.00  0.00    +0.160 C 
BRANCH  54  56
ATOM     55  C   LEU A   2     -18.955  12.628 -16.706  0.00  0.00    +0.241 C 
ATOM     56  N   ASP A   3     -17.632  12.552 -16.639  0.00  0.00    -0.297 N 
ATOM     57  H   ASP A   3     -17.201  11.866 -15.987  0.00  0.00    +0.150 HD
ATOM     58  O   LEU A   2     -19.549  13.229 -17.618  0.00  0.00    -0.273 OA
BRANCH  55  59
ATOM     59  CA  LEU A   2     -19.758  11.961 -15.584  0.00  0.00    +0.149 C 
BRANCH  59  62
ATOM     60  C   LEU A   1     -19.663  13.643 -13.829  0.00  0.00    +0.238 C 
ATOM     61  O   LEU A   1     -18.462  13.407 -13.622  0.00  0.00    -0.274 OA
ATOM     62  N   LEU A   2     -20.372  12.989 -14.735  0.00  0.00    -0.297 N 
ATOM     63  H   LEU A   2     -21.383  13.207 -14.848  0.00  0.00    +0.150 HD
BRANCH  60  64
ATOM     64  CA  LEU A   1     -20.325  14.757 -13.049  0.00  0.00    +0.145 C 
BRANCH  64  65
ATOM     65  N   LEU A   1     -20.231  14.591 -11.616  0.00  0.00    -0.238 NA
ATOM     66  H   LEU A   1     -19.422  15.047 -11.148  0.00  0.00    +0.142 HD
ENDBRANCH  64  65
BRANCH  64  67
ATOM     67  CB  LEU A   1     -19.618  16.067 -13.408  0.00  0.00    +0.026 C 
BRANCH  67  68
ATOM     68  CG  LEU A   1     -19.607  16.519 -14.859  0.00  0.00    +0.002 C 
ATOM     69  CD2 LEU A   1     -19.232  17.995 -14.932  0.00  0.00    +0.000 C 
ATOM     70  CD1 LEU A   1     -20.954  16.303 -15.510  0.00  0.00    +0.000 C 
ENDBRANCH  67  68
ENDBRANCH  64  67
ENDBRANCH  60  64
ENDBRANCH  59  62
BRANCH  59  71
ATOM     71  CB  LEU A   2     -20.823  11.046 -16.182  0.00  0.00    +0.029 C 
BRANCH  71  72
ATOM     72  CG  LEU A   2     -21.755  10.341 -15.194  0.00  0.00    +0.002 C 
ATOM     73  CD2 LEU A   2     -20.978   9.447 -14.252  0.00  0.00    +0.000 C 
ATOM     74  CD1 LEU A   2     -22.813   9.559 -15.964  0.00  0.00    +0.000 C 
ENDBRANCH  71  72
ENDBRANCH  59  71
ENDBRANCH  55  59
ENDBRANCH  54  56
BRANCH  54  75
ATOM     75  CB  ASP A   3     -16.074  14.386 -16.507  0.00  0.00    +0.143 C 
BRANCH  75  76
ATOM     76  CG  ASP A   3     -15.313  15.477 -17.215  0.00  0.00    +0.367 C 
ATOM     77  OD2 ASP A   3     -15.189  16.573 -16.617  0.00  0.00    -0.246 OA
ATOM     78  OD1 ASP A   3     -14.836  15.271 -18.358  0.00  0.00    -0.246 OA
ENDBRANCH  75  76
ENDBRANCH  54  75
ENDBRANCH  50  54
ENDBRANCH  49  52
BRANCH  49  79
ATOM     79  CB  THR A   4     -16.013  11.472 -21.857  0.00  0.00    +0.137 C 
ATOM     80  CG2 THR A   4     -17.238  10.649 -21.507  0.00  0.00    +0.034 C 
BRANCH  79  81
ATOM     81  OG1 THR A   4     -16.464  12.686 -22.466  0.00  0.00    -0.382 OA
ATOM     82  HG1 THR A   4     -15.683  13.251 -22.691  0.00  0.00    +0.210 HD
ENDBRANCH  79  81
ENDBRANCH  49  79
ENDBRANCH  45  49
ENDBRANCH  44  46
ENDBRANCH   1  44
TORSDOF 35
REMARK  Name = ../refined-set-2016/2r3t/2r3t_pocket.pdb
REMARK  231 active torsions:
REMARK  status: ('A' for Active; 'I' for Inactive)
REMARK    1  A    between atoms: _1  and  _3
REMARK    2  A    between atoms: _3  and  _4
REMARK    3  A    between atoms: _3  and  _6
REMARK    4  A    between atoms: _6  and  _7
REMARK    5  A    between atoms: _7  and  _8
REMARK    6  A    between atoms: _8  and  _9
REMARK    7  A    between atoms: _18  and  _20
REMARK    8  A    between atoms: _20  and  _21
REMARK    9  A    between atoms: _20  and  _23
REMARK   10  A    between atoms: _23  and  _24
REMARK   11  A    between atoms: _27  and  _29
REMARK   12  A    between atoms: _29  and  _30
REMARK   13  A    between atoms: _29  and  _32
REMARK   14  A    between atoms: _32  and  _33
REMARK   15  A    between atoms: _36  and  _38
REMARK   16  A    between atoms: _38  and  _39
REMARK   17  A    between atoms: _38  and  _41
REMARK   18  A    between atoms: _41  and  _42
REMARK   19  A    between atoms: _45  and  _47
REMARK   20  A    between atoms: _47  and  _48
REMARK   21  A    between atoms: _47  and  _50
REMARK   22  A    between atoms: _50  and  _51
REMARK   23  A    between atoms: _54  and  _56
REMARK   24  A    between atoms: _56  and  _57
REMARK   25  A    between atoms: _59  and  _61
REMARK   26  A    between atoms: _61  and  _62
REMARK   27  A    between atoms: _65  and  _67
REMARK   28  A    between atoms: _67  and  _68
REMARK   29  A    between atoms: _67  and  _70
REMARK   30  A    between atoms: _70  and  _71
REMARK   31  A    between atoms: _74  and  _76
REMARK   32  A    between atoms: _76  and  _77
REMARK   33  A    between atoms: _76  and  _79
REMARK   34  A    between atoms: _79  and  _80
REMARK   35  A    between atoms: _83  and  _85
REMARK   36  A    between atoms: _85  and  _86
REMARK   37  A    between atoms: _85  and  _88
REMARK   38  A    between atoms: _88  and  _89
REMARK   39  A    between atoms: _92  and  _94
REMARK   40  A    between atoms: _94  and  _95
REMARK   41  A    between atoms: _94  and  _97
REMARK   42  A    between atoms: _100  and  _102
REMARK   43  A    between atoms: _102  and  _103
REMARK   44  A    between atoms: _102  and  _105
REMARK   45  A    between atoms: _105  and  _106
REMARK   46  A    between atoms: _106  and  _107
REMARK   47  A    between atoms: _107  and  _108
REMARK   48  A    between atoms: _108  and  _109
REMARK   49  A    between atoms: _113  and  _115
REMARK   50  A    between atoms: _115  and  _116
REMARK   51  A    between atoms: _115  and  _118
REMARK   52  A    between atoms: _118  and  _119
REMARK   53  A    between atoms: _119  and  _120
REMARK   54  A    between atoms: _122  and  _124
REMARK   55  A    between atoms: _124  and  _125
REMARK   56  A    between atoms: _124  and  _127
REMARK   57  A    between atoms: _127  and  _128
REMARK   58  A    between atoms: _131  and  _133
REMARK   59  A    between atoms: _133  and  _134
REMARK   60  A    between atoms: _136  and  _138
REMARK   61  A    between atoms: _138  and  _139
REMARK   62  A    between atoms: _141  and  _143
REMARK   63  A    between atoms: _143  and  _144
REMARK   64  A    between atoms: _143  and  _146
REMARK   65  A    between atoms: _149  and  _151
REMARK   66  A    between atoms: _151  and  _152
REMARK   67  A    between atoms: _154  and  _156
REMARK   68  A    between atoms: _156  and  _157
REMARK   69  A    between atoms: _159  and  _161
REMARK   70  A    between atoms: _161  and  _162
REMARK   71  A    between atoms: _161  and  _164
REMARK   72  A    between atoms: _164  and  _165
REMARK   73  A    between atoms: _171  and  _173
REMARK   74  A    between atoms: _173  and  _174
REMARK   75  A    between atoms: _173  and  _176
REMARK   76  A    between atoms: _176  and  _177
REMARK   77  A    between atoms: _180  and  _182
REMARK   78  A    between atoms: _182  and  _183
REMARK   79  A    between atoms: _182  and  _185
REMARK   80  A    between atoms: _188  and  _190
REMARK   81  A    between atoms: _190  and  _191
REMARK   82  A    between atoms: _190  and  _193
REMARK   83  A    between atoms: _193  and  _194
REMARK   84  A    between atoms: _197  and  _199
REMARK   85  A    between atoms: _199  and  _200
REMARK   86  A    between atoms: _199  and  _202
REMARK   87  A    between atoms: _202  and  _203
REMARK   88  A    between atoms: _207  and  _208
REMARK   89  A    between atoms: _213  and  _215
REMARK   90  A    between atoms: _215  and  _216
REMARK   91  A    between atoms: _215  and  _218
REMARK   92  A    between atoms: _221  and  _223
REMARK   93  A    between atoms: _223  and  _224
REMARK   94  A    between atoms: _223  and  _226
REMARK   95  A    between atoms: _226  and  _227
REMARK   96  A    between atoms: _232  and  _234
REMARK   97  A    between atoms: _234  and  _235
REMARK   98  A    between atoms: _234  and  _237
REMARK   99  A    between atoms: _237  and  _238
REMARK  100  A    between atoms: _241  and  _243
REMARK  101  A    between atoms: _243  and  _244
REMARK  102  A    between atoms: _243  and  _246
REMARK  103  A    between atoms: _246  and  _247
REMARK  104  A    between atoms: _250  and  _252
REMARK  105  A    between atoms: _252  and  _253
REMARK  106  A    between atoms: _255  and  _257
REMARK  107  A    between atoms: _257  and  _258
REMARK  108  A    between atoms: _257  and  _260
REMARK  109  A    between atoms: _260  and  _261
REMARK  110  A    between atoms: _261  and  _262
REMARK  111  A    between atoms: _262  and  _263
REMARK  112  A    between atoms: _272  and  _274
REMARK  113  A    between atoms: _274  and  _275
REMARK  114  A    between atoms: _274  and  _277
REMARK  115  A    between atoms: _277  and  _278
REMARK  116  A    between atoms: _283  and  _285
REMARK  117  A    between atoms: _285  and  _286
REMARK  118  A    between atoms: _285  and  _288
REMARK  119  A    between atoms: _288  and  _289
REMARK  120  A    between atoms: _289  and  _290
REMARK  121  A    between atoms: _290  and  _291
REMARK  122  A    between atoms: _300  and  _302
REMARK  123  A    between atoms: _302  and  _303
REMARK  124  A    between atoms: _302  and  _305
REMARK  125  A    between atoms: _305  and  _306
REMARK  126  A    between atoms: _309  and  _311
REMARK  127  A    between atoms: _311  and  _312
REMARK  128  A    between atoms: _311  and  _314
REMARK  129  A    between atoms: _314  and  _315
REMARK  130  A    between atoms: _318  and  _320
REMARK  131  A    between atoms: _320  and  _321
REMARK  132  A    between atoms: _320  and  _323
REMARK  133  A    between atoms: _323  and  _324
REMARK  134  A    between atoms: _327  and  _329
REMARK  135  A    between atoms: _329  and  _330
REMARK  136  A    between atoms: _329  and  _332
REMARK  137  A    between atoms: _332  and  _333
REMARK  138  A    between atoms: _336  and  _338
REMARK  139  A    between atoms: _338  and  _339
REMARK  140  A    between atoms: _341  and  _343
REMARK  141  A    between atoms: _343  and  _344
REMARK  142  A    between atoms: _347  and  _349
REMARK  143  A    between atoms: _349  and  _350
REMARK  144  A    between atoms: _349  and  _352
REMARK  145  A    between atoms: _352  and  _353
REMARK  146  A    between atoms: _356  and  _358
REMARK  147  A    between atoms: _358  and  _359
REMARK  148  A    between atoms: _358  and  _361
REMARK  149  A    between atoms: _361  and  _362
REMARK  150  A    between atoms: _365  and  _367
REMARK  151  A    between atoms: _367  and  _368
REMARK  152  A    between atoms: _367  and  _370
REMARK  153  A    between atoms: _370  and  _371
REMARK  154  A    between atoms: _374  and  _376
REMARK  155  A    between atoms: _376  and  _377
REMARK  156  A    between atoms: _376  and  _379
REMARK  157  A    between atoms: _382  and  _384
REMARK  158  A    between atoms: _384  and  _385
REMARK  159  A    between atoms: _384  and  _387
REMARK  160  A    between atoms: _387  and  _388
REMARK  161  A    between atoms: _388  and  _389
REMARK  162  A    between atoms: _389  and  _390
REMARK  163  A    between atoms: _390  and  _391
REMARK  164  A    between atoms: _395  and  _397
REMARK  165  A    between atoms: _397  and  _398
REMARK  166  A    between atoms: _397  and  _400
REMARK  167  A    between atoms: _400  and  _401
REMARK  168  A    between atoms: _401  and  _402
REMARK  169  A    between atoms: _404  and  _406
REMARK  170  A    between atoms: _406  and  _407
REMARK  171  A    between atoms: _406  and  _409
REMARK  172  A    between atoms: _409  and  _410
REMARK  173  A    between atoms: _413  and  _415
REMARK  174  A    between atoms: _415  and  _416
REMARK  175  A    between atoms: _418  and  _420
REMARK  176  A    between atoms: _420  and  _421
REMARK  177  A    between atoms: _423  and  _425
REMARK  178  A    between atoms: _425  and  _426
REMARK  179  A    between atoms: _425  and  _428
REMARK  180  A    between atoms: _431  and  _433
REMARK  181  A    between atoms: _433  and  _434
REMARK  182  A    between atoms: _436  and  _438
REMARK  183  A    between atoms: _438  and  _439
REMARK  184  A    between atoms: _441  and  _443
REMARK  185  A    between atoms: _443  and  _444
REMARK  186  A    between atoms: _443  and  _446
REMARK  187  A    between atoms: _446  and  _447
REMARK  188  A    between atoms: _453  and  _455
REMARK  189  A    between atoms: _455  and  _456
REMARK  190  A    between atoms: _455  and  _458
REMARK  191  A    between atoms: _458  and  _459
REMARK  192  A    between atoms: _462  and  _464
REMARK  193  A    between atoms: _464  and  _465
REMARK  194  A    between atoms: _464  and  _467
REMARK  195  A    between atoms: _470  and  _472
REMARK  196  A    between atoms: _472  and  _473
REMARK  197  A    between atoms: _472  and  _475
REMARK  198  A    between atoms: _475  and  _476
REMARK  199  A    between atoms: _480  and  _481
REMARK  200  A    between atoms: _486  and  _488
REMARK  201  A    between atoms: _488  and  _489
REMARK  202  A    between atoms: _488  and  _491
REMARK  203  A    between atoms: _491  and  _492
REMARK  204  A    between atoms: _496  and  _497
REMARK  205  A    between atoms: _502  and  _504
REMARK  206  A    between atoms: _504  and  _505
REMARK  207  A    between atoms: _504  and  _507
REMARK  208  A    between atoms: _510  and  _512
REMARK  209  A    between atoms: _512  and  _513
REMARK  210  A    between atoms: _512  and  _515
REMARK  211  A    between atoms: _515  and  _516
REMARK  212  A    between atoms: _521  and  _523
REMARK  213  A    between atoms: _523  and  _524
REMARK  214  A    between atoms: _523  and  _526
REMARK  215  A    between atoms: _526  and  _527
REMARK  216  A    between atoms: _530  and  _532
REMARK  217  A    between atoms: _532  and  _533
REMARK  218  A    between atoms: _532  and  _535
REMARK  219  A    between atoms: _535  and  _536
REMARK  220  A    between atoms: _539  and  _541
REMARK  221  A    between atoms: _541  and  _542
REMARK  222  A    between atoms: _544  and  _546
REMARK  223  A    between atoms: _546  and  _547
REMARK  224  A    between atoms: _546  and  _549
REMARK  225  A    between atoms: _549  and  _550
REMARK  226  A    between atoms: _550  and  _551
REMARK  227  A    between atoms: _551  and  _552
REMARK  228  A    between atoms: _561  and  _563
REMARK  229  A    between atoms: _563  and  _564
REMARK  230  A    between atoms: _563  and  _566
REMARK  231  A    between atoms: _566  and  _567
REMARK                            x       y       z     vdW  Elec       q    Type
REMARK                         _______ _______ _______ _____ _____    ______ ____
ROOT
ATOM      1  C   GLY A   5      -7.091  24.267 -17.776  0.00  0.00    +0.243 C 
ATOM      2  O   GLY A   5      -6.235  24.985 -17.270  0.00  0.00    -0.273 OA
ATOM      3  N   VAL A   6      -8.202  24.660 -18.394  0.00  0.00    -0.297 N 
ATOM      4  H   VAL A   6      -8.888  23.966 -18.755  0.00  0.00    +0.150 HD
ENDROOT
BRANCH   3   5
ATOM      5  CA  VAL A   6      -8.430  26.095 -18.551  0.00  0.00    +0.149 C 
BRANCH   5   6
ATOM      6  C   VAL A   6      -8.422  26.714 -17.155  0.00  0.00    +0.241 C 
ATOM      7  O   VAL A   6      -9.024  26.156 -16.232  0.00  0.00    -0.273 OA
ATOM      8  N   GLY A   7      -7.701  27.821 -17.028  0.00  0.00    -0.295 N 
ATOM      9  H   GLY A   7      -7.143  28.184 -17.827  0.00  0.00    +0.150 HD
BRANCH   8  10
ATOM     10  CA  GLY A   7      -7.705  28.515 -15.755  0.00  0.00    +0.176 C 
BRANCH  10  11
ATOM     11  C   GLY A   7      -6.607  28.063 -14.833  0.00  0.00    +0.243 C 
ATOM     12  O   GLY A   7      -6.373  28.699 -13.808  0.00  0.00    -0.273 OA
ATOM     13  N   GLY A   8      -5.936  26.966 -15.173  0.00  0.00    -0.295 N 
ATOM     14  H   GLY A   8      -6.195  26.430 -16.026  0.00  0.00    +0.150 HD
BRANCH  13  15
ATOM     15  CA  GLY A   8      -4.847  26.535 -14.341  0.00  0.00    +0.176 C 
BRANCH  15  16
ATOM     16  C   GLY A   8      -4.903  25.107 -13.827  0.00  0.00    +0.243 C 
ATOM     17  N   PHE A   9      -4.000  24.870 -12.878  0.00  0.00    -0.297 N 
ATOM     18  H   PHE A   9      -3.424  25.687 -12.591  0.00  0.00    +0.150 HD
ATOM     19  O   GLY A   8      -5.695  24.298 -14.281  0.00  0.00    -0.273 OA
BRANCH  17  20
ATOM     20  CA  PHE A   9      -3.715  23.640 -12.199  0.00  0.00    +0.153 C 
BRANCH  20  21
ATOM     21  C   PHE A   9      -4.027  23.697 -10.711  0.00  0.00    +0.241 C 
ATOM     22  O   PHE A   9      -3.922  24.749 -10.080  0.00  0.00    -0.273 OA
ATOM     23  N   ILE A  10      -4.378  22.558 -10.145  0.00  0.00    -0.298 N 
ATOM     24  H   ILE A  10      -4.554  21.731 -10.750  0.00  0.00    +0.150 HD
BRANCH  23  25
ATOM     25  CA  ILE A  10      -4.527  22.419  -8.712  0.00  0.00    +0.137 C 
BRANCH  25  26
ATOM     26  CB  ILE A  10      -6.001  22.211  -8.326  0.00  0.00    +0.026 C 
ATOM     27  CG2 ILE A  10      -6.776  23.478  -8.647  0.00  0.00    +0.002 C 
BRANCH  26  28
ATOM     28  CG1 ILE A  10      -6.641  20.980  -8.961  0.00  0.00    +0.002 C 
ATOM     29  CD1 ILE A  10      -7.845  20.432  -8.230  0.00  0.00    +0.000 C 
ENDBRANCH  26  28
ENDBRANCH  25  26
BRANCH  25  30
ATOM     30  C   ILE A  10      -3.718  21.213  -8.253  0.00  0.00    +0.227 C 
ATOM     31  O   ILE A  10      -3.501  20.315  -9.069  0.00  0.00    -0.286 OA
ENDBRANCH  25  30
ENDBRANCH  23  25
ENDBRANCH  20  21
BRANCH  20  32
ATOM     32  CB  PHE A   9      -2.215  23.298 -12.308  0.00  0.00    +0.055 C 
BRANCH  32  33
ATOM     33  CG  PHE A   9      -1.811  22.876 -13.707  0.00  0.00    -0.020 A 
ATOM     34  CD2 PHE A   9      -1.586  21.539 -14.000  0.00  0.00    -0.004 A 
ATOM     35  CE2 PHE A   9      -1.229  21.150 -15.283  0.00  0.00    -0.000 A 
ATOM     36  CZ  PHE A   9      -1.097  22.112 -16.260  0.00  0.00    -0.000 A 
ATOM     37  CE1 PHE A   9      -1.319  23.445 -15.977  0.00  0.00    -0.000 A 
ATOM     38  CD1 PHE A   9      -1.673  23.829 -14.695  0.00  0.00    -0.004 A 
ENDBRANCH  32  33
ENDBRANCH  20  32
ENDBRANCH  17  20
ENDBRANCH  15  16
ENDBRANCH  13  15
ENDBRANCH  10  11
ENDBRANCH   8  10
ENDBRANCH   5   6
BRANCH   5  39
ATOM     39  CB  VAL A   6      -9.730  26.436 -19.297  0.00  0.00    +0.027 C 
ATOM     40  CG2 VAL A   6     -10.956  26.296 -18.405  0.00  0.00    +0.002 C 
ATOM     41  CG1 VAL A   6      -9.925  25.579 -20.550  0.00  0.00    +0.002 C 
ENDBRANCH   5  39
ENDBRANCH   3   5
BRANCH   1  42
ATOM     42  CA  GLY A   5      -6.891  22.755 -17.681  0.00  0.00    +0.176 C 
BRANCH  42  44
ATOM     43  C   GLY A   4      -5.668  21.313 -16.141  0.00  0.00    +0.243 C 
ATOM     44  N   GLY A   5      -6.129  22.506 -16.470  0.00  0.00    -0.295 N 
ATOM     45  H   GLY A   5      -5.937  23.305 -15.832  0.00  0.00    +0.150 HD
ATOM     46  O   GLY A   4      -5.887  20.316 -16.810  0.00  0.00    -0.273 OA
BRANCH  43  47
ATOM     47  CA  GLY A   4      -4.852  21.305 -14.866  0.00  0.00    +0.176 C 
BRANCH  47  50
ATOM     48  C   ILE A   3      -4.279  19.876 -13.057  0.00  0.00    +0.241 C 
ATOM     49  O   ILE A   3      -4.343  20.806 -12.256  0.00  0.00    -0.273 OA
ATOM     50  N   GLY A   4      -4.558  19.989 -14.352  0.00  0.00    -0.295 N 
ATOM     51  H   GLY A   4      -4.564  19.156 -14.974  0.00  0.00    +0.150 HD
BRANCH  48  52
ATOM     52  CA  ILE A   3      -3.838  18.489 -12.621  0.00  0.00    +0.149 C 
BRANCH  52  54
ATOM     53  C   MET A   2      -1.847  18.065 -11.394  0.00  0.00    +0.241 C 
ATOM     54  N   ILE A   3      -3.052  18.632 -11.402  0.00  0.00    -0.297 N 
ATOM     55  H   ILE A   3      -3.415  19.152 -10.578  0.00  0.00    +0.150 HD
ATOM     56  O   MET A   2      -1.447  17.318 -12.280  0.00  0.00    -0.273 OA
BRANCH  53  57
ATOM     57  CA  MET A   2      -0.961  18.400 -10.195  0.00  0.00    +0.149 C 
BRANCH  57  60
ATOM     58  C   LYS A   1      -0.532  16.627  -8.598  0.00  0.00    +0.238 C 
ATOM     59  O   LYS A   1      -1.246  17.173  -7.757  0.00  0.00    -0.274 OA
ATOM     60  N   MET A   2      -0.301  17.167  -9.777  0.00  0.00    -0.297 N 
ATOM     61  H   MET A   2       0.367  16.704 -10.425  0.00  0.00    +0.150 HD
BRANCH  58  62
ATOM     62  CA  LYS A   1       0.139  15.295  -8.295  0.00  0.00    +0.145 C 
BRANCH  62  63
ATOM     63  N   LYS A   1       0.045  15.034  -6.864  0.00  0.00    -0.238 NA
ATOM     64  H   LYS A   1      -0.757  15.433  -6.336  0.00  0.00    +0.142 HD
ENDBRANCH  62  63
BRANCH  62  65
ATOM     65  CB  LYS A   1      -0.478  14.161  -9.108  0.00  0.00    +0.026 C 
BRANCH  65  66
ATOM     66  CG  LYS A   1      -1.859  14.361  -9.654  0.00  0.00    -0.000 C 
BRANCH  66  67
ATOM     67  CD  LYS A   1      -2.331  13.267 -10.601  0.00  0.00    -0.024 C 
BRANCH  67  68
ATOM     68  CE  LYS A   1      -1.396  13.143 -11.795  0.00  0.00    -0.086 C 
BRANCH  68  69
ATOM     69  NZ  LYS A   1      -2.012  12.409 -12.930  0.00  0.00    +0.380 N 
ATOM     70  HZ1 LYS A   1      -2.267  11.449 -12.623  0.00  0.00    -0.089 HD
ATOM     71  HZ2 LYS A   1      -2.866  12.912 -13.244  0.00  0.00    -0.089 HD
ATOM     72  HZ3 LYS A   1      -1.332  12.354 -13.715  0.00  0.00    -0.089 HD
ENDBRANCH  68  69
ENDBRANCH  67  68
ENDBRANCH  66  67
ENDBRANCH  65  66
ENDBRANCH  62  65
ENDBRANCH  58  62
ENDBRANCH  57  60
BRANCH  57  73
ATOM     73  CB  MET A   2      -0.034  19.523 -10.622  0.00  0.00    +0.041 C 
BRANCH  73  74
ATOM     74  CG  MET A   2       0.980  20.005  -9.607  0.00  0.00    +0.060 C 
BRANCH  74  75
ATOM     75  SD  MET A   2       0.204  20.924  -8.267  0.00  0.00    -0.139 S 
ATOM     76  CE  MET A   2       0.323  22.600  -8.893  0.00  0.00    +0.069 C 
ENDBRANCH  74  75
ENDBRANCH  73  74
ENDBRANCH  57  73
ENDBRANCH  53  57
ENDBRANCH  52  54
BRANCH  52  77
ATOM     77  CB  ILE A   3      -5.068  17.594 -12.438  0.00  0.00    +0.027 C 
ATOM     78  CG2 ILE A   3      -4.633  16.165 -12.136  0.00  0.00    +0.002 C 
BRANCH  77  79
ATOM     79  CG1 ILE A   3      -6.004  18.167 -11.382  0.00  0.00    +0.002 C 
ATOM     80  CD1 ILE A   3      -7.303  17.445 -11.177  0.00  0.00    +0.000 C 
ENDBRANCH  77  79
ENDBRANCH  52  77
ENDBRANCH  48  52
ENDBRANCH  47  50
ENDBRANCH  43  47
ENDBRANCH  42  44
ENDBRANCH   1  42
TORSDOF 35
REMARK  Name = ../refined-set-2016/2r3t/2r3t_pocket.pdb
REMARK  231 active torsions:
REMARK  status: ('A' for Active; 'I' for Inactive)
REMARK    1  A    between atoms: _1  and  _3
REMARK    2  A    between atoms: _3  and  _4
REMARK    3  A    between atoms: _3  and  _6
REMARK    4  A    between atoms: _6  and  _7
REMARK    5  A    between atoms: _7  and  _8
REMARK    6  A    between atoms: _8  and  _9
REMARK    7  A    between atoms: _18  and  _20
REMARK    8  A    between atoms: _20  and  _21
REMARK    9  A    between atoms: _20  and  _23
REMARK   10  A    between atoms: _23  and  _24
REMARK   11  A    between atoms: _27  and  _29
REMARK   12  A    between atoms: _29  and  _30
REMARK   13  A    between atoms: _29  and  _32
REMARK   14  A    between atoms: _32  and  _33
REMARK   15  A    between atoms: _36  and  _38
REMARK   16  A    between atoms: _38  and  _39
REMARK   17  A    between atoms: _38  and  _41
REMARK   18  A    between atoms: _41  and  _42
REMARK   19  A    between atoms: _45  and  _47
REMARK   20  A    between atoms: _47  and  _48
REMARK   21  A    between atoms: _47  and  _50
REMARK   22  A    between atoms: _50  and  _51
REMARK   23  A    between atoms: _54  and  _56
REMARK   24  A    between atoms: _56  and  _57
REMARK   25  A    between atoms: _59  and  _61
REMARK   26  A    between atoms: _61  and  _62
REMARK   27  A    between atoms: _65  and  _67
REMARK   28  A    between atoms: _67  and  _68
REMARK   29  A    between atoms: _67  and  _70
REMARK   30  A    between atoms: _70  and  _71
REMARK   31  A    between atoms: _74  and  _76
REMARK   32  A    between atoms: _76  and  _77
REMARK   33  A    between atoms: _76  and  _79
REMARK   34  A    between atoms: _79  and  _80
REMARK   35  A    between atoms: _83  and  _85
REMARK   36  A    between atoms: _85  and  _86
REMARK   37  A    between atoms: _85  and  _88
REMARK   38  A    between atoms: _88  and  _89
REMARK   39  A    between atoms: _92  and  _94
REMARK   40  A    between atoms: _94  and  _95
REMARK   41  A    between atoms: _94  and  _97
REMARK   42  A    between atoms: _100  and  _102
REMARK   43  A    between atoms: _102  and  _103
REMARK   44  A    between atoms: _102  and  _105
REMARK   45  A    between atoms: _105  and  _106
REMARK   46  A    between atoms: _106  and  _107
REMARK   47  A    between atoms: _107  and  _108
REMARK   48  A    between atoms: _108  and  _109
REMARK   49  A    between atoms: _113  and  _115
REMARK   50  A    between atoms: _115  and  _116
REMARK   51  A    between atoms: _115  and  _118
REMARK   52  A    between atoms: _118  and  _119
REMARK   53  A    between atoms: _119  and  _120
REMARK   54  A    between atoms: _122  and  _124
REMARK   55  A    between atoms: _124  and  _125
REMARK   56  A    between atoms: _124  and  _127
REMARK   57  A    between atoms: _127  and  _128
REMARK   58  A    between atoms: _131  and  _133
REMARK   59  A    between atoms: _133  and  _134
REMARK   60  A    between atoms: _136  and  _138
REMARK   61  A    between atoms: _138  and  _139
REMARK   62  A    between atoms: _141  and  _143
REMARK   63  A    between atoms: _143  and  _144
REMARK   64  A    between atoms: _143  and  _146
REMARK   65  A    between atoms: _149  and  _151
REMARK   66  A    between atoms: _151  and  _152
REMARK   67  A    between atoms: _154  and  _156
REMARK   68  A    between atoms: _156  and  _157
REMARK   69  A    between atoms: _159  and  _161
REMARK   70  A    between atoms: _161  and  _162
REMARK   71  A    between atoms: _161  and  _164
REMARK   72  A    between atoms: _164  and  _165
REMARK   73  A    between atoms: _171  and  _173
REMARK   74  A    between atoms: _173  and  _174
REMARK   75  A    between atoms: _173  and  _176
REMARK   76  A    between atoms: _176  and  _177
REMARK   77  A    between atoms: _180  and  _182
REMARK   78  A    between atoms: _182  and  _183
REMARK   79  A    between atoms: _182  and  _185
REMARK   80  A    between atoms: _188  and  _190
REMARK   81  A    between atoms: _190  and  _191
REMARK   82  A    between atoms: _190  and  _193
REMARK   83  A    between atoms: _193  and  _194
REMARK   84  A    between atoms: _197  and  _199
REMARK   85  A    between atoms: _199  and  _200
REMARK   86  A    between atoms: _199  and  _202
REMARK   87  A    between atoms: _202  and  _203
REMARK   88  A    between atoms: _207  and  _208
REMARK   89  A    between atoms: _213  and  _215
REMARK   90  A    between atoms: _215  and  _216
REMARK   91  A    between atoms: _215  and  _218
REMARK   92  A    between atoms: _221  and  _223
REMARK   93  A    between atoms: _223  and  _224
REMARK   94  A    between atoms: _223  and  _226
REMARK   95  A    between atoms: _226  and  _227
REMARK   96  A    between atoms: _232  and  _234
REMARK   97  A    between atoms: _234  and  _235
REMARK   98  A    between atoms: _234  and  _237
REMARK   99  A    between atoms: _237  and  _238
REMARK  100  A    between atoms: _241  and  _243
REMARK  101  A    between atoms: _243  and  _244
REMARK  102  A    between atoms: _243  and  _246
REMARK  103  A    between atoms: _246  and  _247
REMARK  104  A    between atoms: _250  and  _252
REMARK  105  A    between atoms: _252  and  _253
REMARK  106  A    between atoms: _255  and  _257
REMARK  107  A    between atoms: _257  and  _258
REMARK  108  A    between atoms: _257  and  _260
REMARK  109  A    between atoms: _260  and  _261
REMARK  110  A    between atoms: _261  and  _262
REMARK  111  A    between atoms: _262  and  _263
REMARK  112  A    between atoms: _272  and  _274
REMARK  113  A    between atoms: _274  and  _275
REMARK  114  A    between atoms: _274  and  _277
REMARK  115  A    between atoms: _277  and  _278
REMARK  116  A    between atoms: _283  and  _285
REMARK  117  A    between atoms: _285  and  _286
REMARK  118  A    between atoms: _285  and  _288
REMARK  119  A    between atoms: _288  and  _289
REMARK  120  A    between atoms: _289  and  _290
REMARK  121  A    between atoms: _290  and  _291
REMARK  122  A    between atoms: _300  and  _302
REMARK  123  A    between atoms: _302  and  _303
REMARK  124  A    between atoms: _302  and  _305
REMARK  125  A    between atoms: _305  and  _306
REMARK  126  A    between atoms: _309  and  _311
REMARK  127  A    between atoms: _311  and  _312
REMARK  128  A    between atoms: _311  and  _314
REMARK  129  A    between atoms: _314  and  _315
REMARK  130  A    between atoms: _318  and  _320
REMARK  131  A    between atoms: _320  and  _321
REMARK  132  A    between atoms: _320  and  _323
REMARK  133  A    between atoms: _323  and  _324
REMARK  134  A    between atoms: _327  and  _329
REMARK  135  A    between atoms: _329  and  _330
REMARK  136  A    between atoms: _329  and  _332
REMARK  137  A    between atoms: _332  and  _333
REMARK  138  A    between atoms: _336  and  _338
REMARK  139  A    between atoms: _338  and  _339
REMARK  140  A    between atoms: _341  and  _343
REMARK  141  A    between atoms: _343  and  _344
REMARK  142  A    between atoms: _347  and  _349
REMARK  143  A    between atoms: _349  and  _350
REMARK  144  A    between atoms: _349  and  _352
REMARK  145  A    between atoms: _352  and  _353
REMARK  146  A    between atoms: _356  and  _358
REMARK  147  A    between atoms: _358  and  _359
REMARK  148  A    between atoms: _358  and  _361
REMARK  149  A    between atoms: _361  and  _362
REMARK  150  A    between atoms: _365  and  _367
REMARK  151  A    between atoms: _367  and  _368
REMARK  152  A    between atoms: _367  and  _370
REMARK  153  A    between atoms: _370  and  _371
REMARK  154  A    between atoms: _374  and  _376
REMARK  155  A    between atoms: _376  and  _377
REMARK  156  A    between atoms: _376  and  _379
REMARK  157  A    between atoms: _382  and  _384
REMARK  158  A    between atoms: _384  and  _385
REMARK  159  A    between atoms: _384  and  _387
REMARK  160  A    between atoms: _387  and  _388
REMARK  161  A    between atoms: _388  and  _389
REMARK  162  A    between atoms: _389  and  _390
REMARK  163  A    between atoms: _390  and  _391
REMARK  164  A    between atoms: _395  and  _397
REMARK  165  A    between atoms: _397  and  _398
REMARK  166  A    between atoms: _397  and  _400
REMARK  167  A    between atoms: _400  and  _401
REMARK  168  A    between atoms: _401  and  _402
REMARK  169  A    between atoms: _404  and  _406
REMARK  170  A    between atoms: _406  and  _407
REMARK  171  A    between atoms: _406  and  _409
REMARK  172  A    between atoms: _409  and  _410
REMARK  173  A    between atoms: _413  and  _415
REMARK  174  A    between atoms: _415  and  _416
REMARK  175  A    between atoms: _418  and  _420
REMARK  176  A    between atoms: _420  and  _421
REMARK  177  A    between atoms: _423  and  _425
REMARK  178  A    between atoms: _425  and  _426
REMARK  179  A    between atoms: _425  and  _428
REMARK  180  A    between atoms: _431  and  _433
REMARK  181  A    between atoms: _433  and  _434
REMARK  182  A    between atoms: _436  and  _438
REMARK  183  A    between atoms: _438  and  _439
REMARK  184  A    between atoms: _441  and  _443
REMARK  185  A    between atoms: _443  and  _444
REMARK  186  A    between atoms: _443  and  _446
REMARK  187  A    between atoms: _446  and  _447
REMARK  188  A    between atoms: _453  and  _455
REMARK  189  A    between atoms: _455  and  _456
REMARK  190  A    between atoms: _455  and  _458
REMARK  191  A    between atoms: _458  and  _459
REMARK  192  A    between atoms: _462  and  _464
REMARK  193  A    between atoms: _464  and  _465
REMARK  194  A    between atoms: _464  and  _467
REMARK  195  A    between atoms: _470  and  _472
REMARK  196  A    between atoms: _472  and  _473
REMARK  197  A    between atoms: _472  and  _475
REMARK  198  A    between atoms: _475  and  _476
REMARK  199  A    between atoms: _480  and  _481
REMARK  200  A    between atoms: _486  and  _488
REMARK  201  A    between atoms: _488  and  _489
REMARK  202  A    between atoms: _488  and  _491
REMARK  203  A    between atoms: _491  and  _492
REMARK  204  A    between atoms: _496  and  _497
REMARK  205  A    between atoms: _502  and  _504
REMARK  206  A    between atoms: _504  and  _505
REMARK  207  A    between atoms: _504  and  _507
REMARK  208  A    between atoms: _510  and  _512
REMARK  209  A    between atoms: _512  and  _513
REMARK  210  A    between atoms: _512  and  _515
REMARK  211  A    between atoms: _515  and  _516
REMARK  212  A    between atoms: _521  and  _523
REMARK  213  A    between atoms: _523  and  _524
REMARK  214  A    between atoms: _523  and  _526
REMARK  215  A    between atoms: _526  and  _527
REMARK  216  A    between atoms: _530  and  _532
REMARK  217  A    between atoms: _532  and  _533
REMARK  218  A    between atoms: _532  and  _535
REMARK  219  A    between atoms: _535  and  _536
REMARK  220  A    between atoms: _539  and  _541
REMARK  221  A    between atoms: _541  and  _542
REMARK  222  A    between atoms: _544  and  _546
REMARK  223  A    between atoms: _546  and  _547
REMARK  224  A    between atoms: _546  and  _549
REMARK  225  A    between atoms: _549  and  _550
REMARK  226  A    between atoms: _550  and  _551
REMARK  227  A    between atoms: _551  and  _552
REMARK  228  A    between atoms: _561  and  _563
REMARK  229  A    between atoms: _563  and  _564
REMARK  230  A    between atoms: _563  and  _566
REMARK  231  A    between atoms: _566  and  _567
REMARK                            x       y       z     vdW  Elec       q    Type
REMARK                         _______ _______ _______ _____ _____    ______ ____
ROOT
ATOM      1  CA  VAL A   1      -4.352  16.832  -5.492  0.00  0.00    +0.133 C 
ENDROOT
BRANCH   1   2
ATOM      2  CB  VAL A   1      -5.272  16.251  -6.591  0.00  0.00    +0.023 C 
ATOM      3  CG2 VAL A   1      -6.276  17.315  -7.044  0.00  0.00    +0.002 C 
ATOM      4  CG1 VAL A   1      -4.483  15.742  -7.774  0.00  0.00    +0.002 C 
ENDBRANCH   1   2
BRANCH   1   5
ATOM      5  N   VAL A   1      -3.529  17.917  -5.977  0.00  0.00    -0.239 NA
ATOM      6  H   VAL A   1      -2.700  17.661  -6.551  0.00  0.00    +0.142 HD
ENDBRANCH   1   5
BRANCH   1   7
ATOM      7  C   VAL A   1      -3.513  15.693  -4.918  0.00  0.00    +0.224 C 
ATOM      8  O   VAL A   1      -2.331  15.541  -5.199  0.00  0.00    -0.287 OA
ENDBRANCH   1   7
TORSDOF 3
REMARK  Name = ../refined-set-2016/2r3t/2r3t_pocket.pdb
REMARK  231 active torsions:
REMARK  status: ('A' for Active; 'I' for Inactive)
REMARK    1  A    between atoms: _1  and  _3
REMARK    2  A    between atoms: _3  and  _4
REMARK    3  A    between atoms: _3  and  _6
REMARK    4  A    between atoms: _6  and  _7
REMARK    5  A    between atoms: _7  and  _8
REMARK    6  A    between atoms: _8  and  _9
REMARK    7  A    between atoms: _18  and  _20
REMARK    8  A    between atoms: _20  and  _21
REMARK    9  A    between atoms: _20  and  _23
REMARK   10  A    between atoms: _23  and  _24
REMARK   11  A    between atoms: _27  and  _29
REMARK   12  A    between atoms: _29  and  _30
REMARK   13  A    between atoms: _29  and  _32
REMARK   14  A    between atoms: _32  and  _33
REMARK   15  A    between atoms: _36  and  _38
REMARK   16  A    between atoms: _38  and  _39
REMARK   17  A    between atoms: _38  and  _41
REMARK   18  A    between atoms: _41  and  _42
REMARK   19  A    between atoms: _45  and  _47
REMARK   20  A    between atoms: _47  and  _48
REMARK   21  A    between atoms: _47  and  _50
REMARK   22  A    between atoms: _50  and  _51
REMARK   23  A    between atoms: _54  and  _56
REMARK   24  A    between atoms: _56  and  _57
REMARK   25  A    between atoms: _59  and  _61
REMARK   26  A    between atoms: _61  and  _62
REMARK   27  A    between atoms: _65  and  _67
REMARK   28  A    between atoms: _67  and  _68
REMARK   29  A    between atoms: _67  and  _70
REMARK   30  A    between atoms: _70  and  _71
REMARK   31  A    between atoms: _74  and  _76
REMARK   32  A    between atoms: _76  and  _77
REMARK   33  A    between atoms: _76  and  _79
REMARK   34  A    between atoms: _79  and  _80
REMARK   35  A    between atoms: _83  and  _85
REMARK   36  A    between atoms: _85  and  _86
REMARK   37  A    between atoms: _85  and  _88
REMARK   38  A    between atoms: _88  and  _89
REMARK   39  A    between atoms: _92  and  _94
REMARK   40  A    between atoms: _94  and  _95
REMARK   41  A    between atoms: _94  and  _97
REMARK   42  A    between atoms: _100  and  _102
REMARK   43  A    between atoms: _102  and  _103
REMARK   44  A    between atoms: _102  and  _105
REMARK   45  A    between atoms: _105  and  _106
REMARK   46  A    between atoms: _106  and  _107
REMARK   47  A    between atoms: _107  and  _108
REMARK   48  A    between atoms: _108  and  _109
REMARK   49  A    between atoms: _113  and  _115
REMARK   50  A    between atoms: _115  and  _116
REMARK   51  A    between atoms: _115  and  _118
REMARK   52  A    between atoms: _118  and  _119
REMARK   53  A    between atoms: _119  and  _120
REMARK   54  A    between atoms: _122  and  _124
REMARK   55  A    between atoms: _124  and  _125
REMARK   56  A    between atoms: _124  and  _127
REMARK   57  A    between atoms: _127  and  _128
REMARK   58  A    between atoms: _131  and  _133
REMARK   59  A    between atoms: _133  and  _134
REMARK   60  A    between atoms: _136  and  _138
REMARK   61  A    between atoms: _138  and  _139
REMARK   62  A    between atoms: _141  and  _143
REMARK   63  A    between atoms: _143  and  _144
REMARK   64  A    between atoms: _143  and  _146
REMARK   65  A    between atoms: _149  and  _151
REMARK   66  A    between atoms: _151  and  _152
REMARK   67  A    between atoms: _154  and  _156
REMARK   68  A    between atoms: _156  and  _157
REMARK   69  A    between atoms: _159  and  _161
REMARK   70  A    between atoms: _161  and  _162
REMARK   71  A    between atoms: _161  and  _164
REMARK   72  A    between atoms: _164  and  _165
REMARK   73  A    between atoms: _171  and  _173
REMARK   74  A    between atoms: _173  and  _174
REMARK   75  A    between atoms: _173  and  _176
REMARK   76  A    between atoms: _176  and  _177
REMARK   77  A    between atoms: _180  and  _182
REMARK   78  A    between atoms: _182  and  _183
REMARK   79  A    between atoms: _182  and  _185
REMARK   80  A    between atoms: _188  and  _190
REMARK   81  A    between atoms: _190  and  _191
REMARK   82  A    between atoms: _190  and  _193
REMARK   83  A    between atoms: _193  and  _194
REMARK   84  A    between atoms: _197  and  _199
REMARK   85  A    between atoms: _199  and  _200
REMARK   86  A    between atoms: _199  and  _202
REMARK   87  A    between atoms: _202  and  _203
REMARK   88  A    between atoms: _207  and  _208
REMARK   89  A    between atoms: _213  and  _215
REMARK   90  A    between atoms: _215  and  _216
REMARK   91  A    between atoms: _215  and  _218
REMARK   92  A    between atoms: _221  and  _223
REMARK   93  A    between atoms: _223  and  _224
REMARK   94  A    between atoms: _223  and  _226
REMARK   95  A    between atoms: _226  and  _227
REMARK   96  A    between atoms: _232  and  _234
REMARK   97  A    between atoms: _234  and  _235
REMARK   98  A    between atoms: _234  and  _237
REMARK   99  A    between atoms: _237  and  _238
REMARK  100  A    between atoms: _241  and  _243
REMARK  101  A    between atoms: _243  and  _244
REMARK  102  A    between atoms: _243  and  _246
REMARK  103  A    between atoms: _246  and  _247
REMARK  104  A    between atoms: _250  and  _252
REMARK  105  A    between atoms: _252  and  _253
REMARK  106  A    between atoms: _255  and  _257
REMARK  107  A    between atoms: _257  and  _258
REMARK  108  A    between atoms: _257  and  _260
REMARK  109  A    between atoms: _260  and  _261
REMARK  110  A    between atoms: _261  and  _262
REMARK  111  A    between atoms: _262  and  _263
REMARK  112  A    between atoms: _272  and  _274
REMARK  113  A    between atoms: _274  and  _275
REMARK  114  A    between atoms: _274  and  _277
REMARK  115  A    between atoms: _277  and  _278
REMARK  116  A    between atoms: _283  and  _285
REMARK  117  A    between atoms: _285  and  _286
REMARK  118  A    between atoms: _285  and  _288
REMARK  119  A    between atoms: _288  and  _289
REMARK  120  A    between atoms: _289  and  _290
REMARK  121  A    between atoms: _290  and  _291
REMARK  122  A    between atoms: _300  and  _302
REMARK  123  A    between atoms: _302  and  _303
REMARK  124  A    between atoms: _302  and  _305
REMARK  125  A    between atoms: _305  and  _306
REMARK  126  A    between atoms: _309  and  _311
REMARK  127  A    between atoms: _311  and  _312
REMARK  128  A    between atoms: _311  and  _314
REMARK  129  A    between atoms: _314  and  _315
REMARK  130  A    between atoms: _318  and  _320
REMARK  131  A    between atoms: _320  and  _321
REMARK  132  A    between atoms: _320  and  _323
REMARK  133  A    between atoms: _323  and  _324
REMARK  134  A    between atoms: _327  and  _329
REMARK  135  A    between atoms: _329  and  _330
REMARK  136  A    between atoms: _329  and  _332
REMARK  137  A    between atoms: _332  and  _333
REMARK  138  A    between atoms: _336  and  _338
REMARK  139  A    between atoms: _338  and  _339
REMARK  140  A    between atoms: _341  and  _343
REMARK  141  A    between atoms: _343  and  _344
REMARK  142  A    between atoms: _347  and  _349
REMARK  143  A    between atoms: _349  and  _350
REMARK  144  A    between atoms: _349  and  _352
REMARK  145  A    between atoms: _352  and  _353
REMARK  146  A    between atoms: _356  and  _358
REMARK  147  A    between atoms: _358  and  _359
REMARK  148  A    between atoms: _358  and  _361
REMARK  149  A    between atoms: _361  and  _362
REMARK  150  A    between atoms: _365  and  _367
REMARK  151  A    between atoms: _367  and  _368
REMARK  152  A    between atoms: _367  and  _370
REMARK  153  A    between atoms: _370  and  _371
REMARK  154  A    between atoms: _374  and  _376
REMARK  155  A    between atoms: _376  and  _377
REMARK  156  A    between atoms: _376  and  _379
REMARK  157  A    between atoms: _382  and  _384
REMARK  158  A    between atoms: _384  and  _385
REMARK  159  A    between atoms: _384  and  _387
REMARK  160  A    between atoms: _387  and  _388
REMARK  161  A    between atoms: _388  and  _389
REMARK  162  A    between atoms: _389  and  _390
REMARK  163  A    between atoms: _390  and  _391
REMARK  164  A    between atoms: _395  and  _397
REMARK  165  A    between atoms: _397  and  _398
REMARK  166  A    between atoms: _397  and  _400
REMARK  167  A    between atoms: _400  and  _401
REMARK  168  A    between atoms: _401  and  _402
REMARK  169  A    between atoms: _404  and  _406
REMARK  170  A    between atoms: _406  and  _407
REMARK  171  A    between atoms: _406  and  _409
REMARK  172  A    between atoms: _409  and  _410
REMARK  173  A    between atoms: _413  and  _415
REMARK  174  A    between atoms: _415  and  _416
REMARK  175  A    between atoms: _418  and  _420
REMARK  176  A    between atoms: _420  and  _421
REMARK  177  A    between atoms: _423  and  _425
REMARK  178  A    between atoms: _425  and  _426
REMARK  179  A    between atoms: _425  and  _428
REMARK  180  A    between atoms: _431  and  _433
REMARK  181  A    between atoms: _433  and  _434
REMARK  182  A    between atoms: _436  and  _438
REMARK  183  A    between atoms: _438  and  _439
REMARK  184  A    between atoms: _441  and  _443
REMARK  185  A    between atoms: _443  and  _444
REMARK  186  A    between atoms: _443  and  _446
REMARK  187  A    between atoms: _446  and  _447
REMARK  188  A    between atoms: _453  and  _455
REMARK  189  A    between atoms: _455  and  _456
REMARK  190  A    between atoms: _455  and  _458
REMARK  191  A    between atoms: _458  and  _459
REMARK  192  A    between atoms: _462  and  _464
REMARK  193  A    between atoms: _464  and  _465
REMARK  194  A    between atoms: _464  and  _467
REMARK  195  A    between atoms: _470  and  _472
REMARK  196  A    between atoms: _472  and  _473
REMARK  197  A    between atoms: _472  and  _475
REMARK  198  A    between atoms: _475  and  _476
REMARK  199  A    between atoms: _480  and  _481
REMARK  200  A    between atoms: _486  and  _488
REMARK  201  A    between atoms: _488  and  _489
REMARK  202  A    between atoms: _488  and  _491
REMARK  203  A    between atoms: _491  and  _492
REMARK  204  A    between atoms: _496  and  _497
REMARK  205  A    between atoms: _502  and  _504
REMARK  206  A    between atoms: _504  and  _505
REMARK  207  A    between atoms: _504  and  _507
REMARK  208  A    between atoms: _510  and  _512
REMARK  209  A    between atoms: _512  and  _513
REMARK  210  A    between atoms: _512  and  _515
REMARK  211  A    between atoms: _515  and  _516
REMARK  212  A    between atoms: _521  and  _523
REMARK  213  A    between atoms: _523  and  _524
REMARK  214  A    between atoms: _523  and  _526
REMARK  215  A    between atoms: _526  and  _527
REMARK  216  A    between atoms: _530  and  _532
REMARK  217  A    between atoms: _532  and  _533
REMARK  218  A    between atoms: _532  and  _535
REMARK  219  A    between atoms: _535  and  _536
REMARK  220  A    between atoms: _539  and  _541
REMARK  221  A    between atoms: _541  and  _542
REMARK  222  A    between atoms: _544  and  _546
REMARK  223  A    between atoms: _546  and  _547
REMARK  224  A    between atoms: _546  and  _549
REMARK  225  A    between atoms: _549  and  _550
REMARK  226  A    between atoms: _550  and  _551
REMARK  227  A    between atoms: _551  and  _552
REMARK  228  A    between atoms: _561  and  _563
REMARK  229  A    between atoms: _563  and  _564
REMARK  230  A    between atoms: _563  and  _566
REMARK  231  A    between atoms: _566  and  _567
REMARK                            x       y       z     vdW  Elec       q    Type
REMARK                         _______ _______ _______ _____ _____    ______ ____
ROOT
ATOM      1  CA  LEU A   1      -7.774  12.279  -6.836  0.00  0.00    +0.133 C 
ENDROOT
BRANCH   1   2
ATOM      2  N   LEU A   1      -8.525  11.087  -7.193  0.00  0.00    -0.239 NA
ATOM      3  H   LEU A   1      -9.134  11.113  -8.036  0.00  0.00    +0.142 HD
ENDBRANCH   1   2
BRANCH   1   4
ATOM      4  C   LEU A   1      -8.622  13.176  -5.950  0.00  0.00    +0.224 C 
ATOM      5  O   LEU A   1      -9.805  13.394  -6.228  0.00  0.00    -0.287 OA
ENDBRANCH   1   4
BRANCH   1   6
ATOM      6  CB  LEU A   1      -7.352  13.044  -8.086  0.00  0.00    +0.025 C 
BRANCH   6   7
ATOM      7  CG  LEU A   1      -6.741  12.211  -9.215  0.00  0.00    +0.002 C 
ATOM      8  CD2 LEU A   1      -5.416  11.613  -8.762  0.00  0.00    +0.000 C 
ATOM      9  CD1 LEU A   1      -6.569  13.025 -10.483  0.00  0.00    +0.000 C 
ENDBRANCH   6   7
ENDBRANCH   1   6
TORSDOF 4
REMARK  Name = ../refined-set-2016/2r3t/2r3t_pocket.pdb
REMARK  231 active torsions:
REMARK  status: ('A' for Active; 'I' for Inactive)
REMARK    1  A    between atoms: _1  and  _3
REMARK    2  A    between atoms: _3  and  _4
REMARK    3  A    between atoms: _3  and  _6
REMARK    4  A    between atoms: _6  and  _7
REMARK    5  A    between atoms: _7  and  _8
REMARK    6  A    between atoms: _8  and  _9
REMARK    7  A    between atoms: _18  and  _20
REMARK    8  A    between atoms: _20  and  _21
REMARK    9  A    between atoms: _20  and  _23
REMARK   10  A    between atoms: _23  and  _24
REMARK   11  A    between atoms: _27  and  _29
REMARK   12  A    between atoms: _29  and  _30
REMARK   13  A    between atoms: _29  and  _32
REMARK   14  A    between atoms: _32  and  _33
REMARK   15  A    between atoms: _36  and  _38
REMARK   16  A    between atoms: _38  and  _39
REMARK   17  A    between atoms: _38  and  _41
REMARK   18  A    between atoms: _41  and  _42
REMARK   19  A    between atoms: _45  and  _47
REMARK   20  A    between atoms: _47  and  _48
REMARK   21  A    between atoms: _47  and  _50
REMARK   22  A    between atoms: _50  and  _51
REMARK   23  A    between atoms: _54  and  _56
REMARK   24  A    between atoms: _56  and  _57
REMARK   25  A    between atoms: _59  and  _61
REMARK   26  A    between atoms: _61  and  _62
REMARK   27  A    between atoms: _65  and  _67
REMARK   28  A    between atoms: _67  and  _68
REMARK   29  A    between atoms: _67  and  _70
REMARK   30  A    between atoms: _70  and  _71
REMARK   31  A    between atoms: _74  and  _76
REMARK   32  A    between atoms: _76  and  _77
REMARK   33  A    between atoms: _76  and  _79
REMARK   34  A    between atoms: _79  and  _80
REMARK   35  A    between atoms: _83  and  _85
REMARK   36  A    between atoms: _85  and  _86
REMARK   37  A    between atoms: _85  and  _88
REMARK   38  A    between atoms: _88  and  _89
REMARK   39  A    between atoms: _92  and  _94
REMARK   40  A    between atoms: _94  and  _95
REMARK   41  A    between atoms: _94  and  _97
REMARK   42  A    between atoms: _100  and  _102
REMARK   43  A    between atoms: _102  and  _103
REMARK   44  A    between atoms: _102  and  _105
REMARK   45  A    between atoms: _105  and  _106
REMARK   46  A    between atoms: _106  and  _107
REMARK   47  A    between atoms: _107  and  _108
REMARK   48  A    between atoms: _108  and  _109
REMARK   49  A    between atoms: _113  and  _115
REMARK   50  A    between atoms: _115  and  _116
REMARK   51  A    between atoms: _115  and  _118
REMARK   52  A    between atoms: _118  and  _119
REMARK   53  A    between atoms: _119  and  _120
REMARK   54  A    between atoms: _122  and  _124
REMARK   55  A    between atoms: _124  and  _125
REMARK   56  A    between atoms: _124  and  _127
REMARK   57  A    between atoms: _127  and  _128
REMARK   58  A    between atoms: _131  and  _133
REMARK   59  A    between atoms: _133  and  _134
REMARK   60  A    between atoms: _136  and  _138
REMARK   61  A    between atoms: _138  and  _139
REMARK   62  A    between atoms: _141  and  _143
REMARK   63  A    between atoms: _143  and  _144
REMARK   64  A    between atoms: _143  and  _146
REMARK   65  A    between atoms: _149  and  _151
REMARK   66  A    between atoms: _151  and  _152
REMARK   67  A    between atoms: _154  and  _156
REMARK   68  A    between atoms: _156  and  _157
REMARK   69  A    between atoms: _159  and  _161
REMARK   70  A    between atoms: _161  and  _162
REMARK   71  A    between atoms: _161  and  _164
REMARK   72  A    between atoms: _164  and  _165
REMARK   73  A    between atoms: _171  and  _173
REMARK   74  A    between atoms: _173  and  _174
REMARK   75  A    between atoms: _173  and  _176
REMARK   76  A    between atoms: _176  and  _177
REMARK   77  A    between atoms: _180  and  _182
REMARK   78  A    between atoms: _182  and  _183
REMARK   79  A    between atoms: _182  and  _185
REMARK   80  A    between atoms: _188  and  _190
REMARK   81  A    between atoms: _190  and  _191
REMARK   82  A    between atoms: _190  and  _193
REMARK   83  A    between atoms: _193  and  _194
REMARK   84  A    between atoms: _197  and  _199
REMARK   85  A    between atoms: _199  and  _200
REMARK   86  A    between atoms: _199  and  _202
REMARK   87  A    between atoms: _202  and  _203
REMARK   88  A    between atoms: _207  and  _208
REMARK   89  A    between atoms: _213  and  _215
REMARK   90  A    between atoms: _215  and  _216
REMARK   91  A    between atoms: _215  and  _218
REMARK   92  A    between atoms: _221  and  _223
REMARK   93  A    between atoms: _223  and  _224
REMARK   94  A    between atoms: _223  and  _226
REMARK   95  A    between atoms: _226  and  _227
REMARK   96  A    between atoms: _232  and  _234
REMARK   97  A    between atoms: _234  and  _235
REMARK   98  A    between atoms: _234  and  _237
REMARK   99  A    between atoms: _237  and  _238
REMARK  100  A    between atoms: _241  and  _243
REMARK  101  A    between atoms: _243  and  _244
REMARK  102  A    between atoms: _243  and  _246
REMARK  103  A    between atoms: _246  and  _247
REMARK  104  A    between atoms: _250  and  _252
REMARK  105  A    between atoms: _252  and  _253
REMARK  106  A    between atoms: _255  and  _257
REMARK  107  A    between atoms: _257  and  _258
REMARK  108  A    between atoms: _257  and  _260
REMARK  109  A    between atoms: _260  and  _261
REMARK  110  A    between atoms: _261  and  _262
REMARK  111  A    between atoms: _262  and  _263
REMARK  112  A    between atoms: _272  and  _274
REMARK  113  A    between atoms: _274  and  _275
REMARK  114  A    between atoms: _274  and  _277
REMARK  115  A    between atoms: _277  and  _278
REMARK  116  A    between atoms: _283  and  _285
REMARK  117  A    between atoms: _285  and  _286
REMARK  118  A    between atoms: _285  and  _288
REMARK  119  A    between atoms: _288  and  _289
REMARK  120  A    between atoms: _289  and  _290
REMARK  121  A    between atoms: _290  and  _291
REMARK  122  A    between atoms: _300  and  _302
REMARK  123  A    between atoms: _302  and  _303
REMARK  124  A    between atoms: _302  and  _305
REMARK  125  A    between atoms: _305  and  _306
REMARK  126  A    between atoms: _309  and  _311
REMARK  127  A    between atoms: _311  and  _312
REMARK  128  A    between atoms: _311  and  _314
REMARK  129  A    between atoms: _314  and  _315
REMARK  130  A    between atoms: _318  and  _320
REMARK  131  A    between atoms: _320  and  _321
REMARK  132  A    between atoms: _320  and  _323
REMARK  133  A    between atoms: _323  and  _324
REMARK  134  A    between atoms: _327  and  _329
REMARK  135  A    between atoms: _329  and  _330
REMARK  136  A    between atoms: _329  and  _332
REMARK  137  A    between atoms: _332  and  _333
REMARK  138  A    between atoms: _336  and  _338
REMARK  139  A    between atoms: _338  and  _339
REMARK  140  A    between atoms: _341  and  _343
REMARK  141  A    between atoms: _343  and  _344
REMARK  142  A    between atoms: _347  and  _349
REMARK  143  A    between atoms: _349  and  _350
REMARK  144  A    between atoms: _349  and  _352
REMARK  145  A    between atoms: _352  and  _353
REMARK  146  A    between atoms: _356  and  _358
REMARK  147  A    between atoms: _358  and  _359
REMARK  148  A    between atoms: _358  and  _361
REMARK  149  A    between atoms: _361  and  _362
REMARK  150  A    between atoms: _365  and  _367
REMARK  151  A    between atoms: _367  and  _368
REMARK  152  A    between atoms: _367  and  _370
REMARK  153  A    between atoms: _370  and  _371
REMARK  154  A    between atoms: _374  and  _376
REMARK  155  A    between atoms: _376  and  _377
REMARK  156  A    between atoms: _376  and  _379
REMARK  157  A    between atoms: _382  and  _384
REMARK  158  A    between atoms: _384  and  _385
REMARK  159  A    between atoms: _384  and  _387
REMARK  160  A    between atoms: _387  and  _388
REMARK  161  A    between atoms: _388  and  _389
REMARK  162  A    between atoms: _389  and  _390
REMARK  163  A    between atoms: _390  and  _391
REMARK  164  A    between atoms: _395  and  _397
REMARK  165  A    between atoms: _397  and  _398
REMARK  166  A    between atoms: _397  and  _400
REMARK  167  A    between atoms: _400  and  _401
REMARK  168  A    between atoms: _401  and  _402
REMARK  169  A    between atoms: _404  and  _406
REMARK  170  A    between atoms: _406  and  _407
REMARK  171  A    between atoms: _406  and  _409
REMARK  172  A    between atoms: _409  and  _410
REMARK  173  A    between atoms: _413  and  _415
REMARK  174  A    between atoms: _415  and  _416
REMARK  175  A    between atoms: _418  and  _420
REMARK  176  A    between atoms: _420  and  _421
REMARK  177  A    between atoms: _423  and  _425
REMARK  178  A    between atoms: _425  and  _426
REMARK  179  A    between atoms: _425  and  _428
REMARK  180  A    between atoms: _431  and  _433
REMARK  181  A    between atoms: _433  and  _434
REMARK  182  A    between atoms: _436  and  _438
REMARK  183  A    between atoms: _438  and  _439
REMARK  184  A    between atoms: _441  and  _443
REMARK  185  A    between atoms: _443  and  _444
REMARK  186  A    between atoms: _443  and  _446
REMARK  187  A    between atoms: _446  and  _447
REMARK  188  A    between atoms: _453  and  _455
REMARK  189  A    between atoms: _455  and  _456
REMARK  190  A    between atoms: _455  and  _458
REMARK  191  A    between atoms: _458  and  _459
REMARK  192  A    between atoms: _462  and  _464
REMARK  193  A    between atoms: _464  and  _465
REMARK  194  A    between atoms: _464  and  _467
REMARK  195  A    between atoms: _470  and  _472
REMARK  196  A    between atoms: _472  and  _473
REMARK  197  A    between atoms: _472  and  _475
REMARK  198  A    between atoms: _475  and  _476
REMARK  199  A    between atoms: _480  and  _481
REMARK  200  A    between atoms: _486  and  _488
REMARK  201  A    between atoms: _488  and  _489
REMARK  202  A    between atoms: _488  and  _491
REMARK  203  A    between atoms: _491  and  _492
REMARK  204  A    between atoms: _496  and  _497
REMARK  205  A    between atoms: _502  and  _504
REMARK  206  A    between atoms: _504  and  _505
REMARK  207  A    between atoms: _504  and  _507
REMARK  208  A    between atoms: _510  and  _512
REMARK  209  A    between atoms: _512  and  _513
REMARK  210  A    between atoms: _512  and  _515
REMARK  211  A    between atoms: _515  and  _516
REMARK  212  A    between atoms: _521  and  _523
REMARK  213  A    between atoms: _523  and  _524
REMARK  214  A    between atoms: _523  and  _526
REMARK  215  A    between atoms: _526  and  _527
REMARK  216  A    between atoms: _530  and  _532
REMARK  217  A    between atoms: _532  and  _533
REMARK  218  A    between atoms: _532  and  _535
REMARK  219  A    between atoms: _535  and  _536
REMARK  220  A    between atoms: _539  and  _541
REMARK  221  A    between atoms: _541  and  _542
REMARK  222  A    between atoms: _544  and  _546
REMARK  223  A    between atoms: _546  and  _547
REMARK  224  A    between atoms: _546  and  _549
REMARK  225  A    between atoms: _549  and  _550
REMARK  226  A    between atoms: _550  and  _551
REMARK  227  A    between atoms: _551  and  _552
REMARK  228  A    between atoms: _561  and  _563
REMARK  229  A    between atoms: _563  and  _564
REMARK  230  A    between atoms: _563  and  _566
REMARK  231  A    between atoms: _566  and  _567
REMARK                            x       y       z     vdW  Elec       q    Type
REMARK                         _______ _______ _______ _____ _____    ______ ____
ROOT
ATOM      1  C   ILE A   5     -15.575  13.012 -11.350  0.00  0.00    +0.241 C 
ATOM      2  O   ILE A   5     -14.717  12.528 -10.617  0.00  0.00    -0.273 OA
ATOM      3  N   ILE A   6     -16.349  12.295 -12.152  0.00  0.00    -0.297 N 
ATOM      4  H   ILE A   6     -17.194  12.732 -12.572  0.00  0.00    +0.150 HD
ENDROOT
BRANCH   3   5
ATOM      5  CA  ILE A   6     -16.036  10.902 -12.456  0.00  0.00    +0.149 C 
BRANCH   5   6
ATOM      6  C   ILE A   6     -15.389  10.830 -13.846  0.00  0.00    +0.241 C 
ATOM      7  N   GLY A   7     -14.137  10.385 -13.863  0.00  0.00    -0.295 N 
ATOM      8  H   GLY A   7     -13.722  10.137 -12.942  0.00  0.00    +0.150 HD
ATOM      9  O   ILE A   6     -16.026  11.173 -14.846  0.00  0.00    -0.273 OA
BRANCH   7  10
ATOM     10  CA  GLY A   7     -13.298  10.210 -15.008  0.00  0.00    +0.176 C 
BRANCH  10  11
ATOM     11  C   GLY A   7     -13.315   8.841 -15.655  0.00  0.00    +0.243 C 
ATOM     12  O   GLY A   7     -13.927   7.905 -15.141  0.00  0.00    -0.273 OA
ATOM     13  N   ARG A   8     -12.650   8.746 -16.803  0.00  0.00    -0.297 N 
ATOM     14  H   ARG A   8     -12.121   9.581 -17.127  0.00  0.00    +0.150 HD
BRANCH  13  15
ATOM     15  CA  ARG A   8     -12.613   7.558 -17.633  0.00  0.00    +0.149 C 
BRANCH  15  16
ATOM     16  C   ARG A   8     -12.150   6.348 -16.817  0.00  0.00    +0.241 C 
ATOM     17  N   ASN A   9     -11.217   6.564 -15.886  0.00  0.00    -0.298 N 
ATOM     18  H   ASN A   9     -10.885   7.533 -15.705  0.00  0.00    +0.150 HD
ATOM     19  O   ARG A   8     -12.634   5.234 -17.036  0.00  0.00    -0.273 OA
BRANCH  17  20
ATOM     20  CA  ASN A   9     -10.658   5.453 -15.120  0.00  0.00    +0.146 C 
BRANCH  20  21
ATOM     21  C   ASN A   9     -11.712   4.644 -14.382  0.00  0.00    +0.227 C 
ATOM     22  O   ASN A   9     -11.497   3.441 -14.173  0.00  0.00    -0.286 OA
ENDBRANCH  20  21
BRANCH  20  23
ATOM     23  CB  ASN A   9      -9.606   5.958 -14.132  0.00  0.00    +0.112 C 
BRANCH  23  24
ATOM     24  CG  ASN A   9     -10.152   6.406 -12.800  0.00  0.00    +0.222 C 
ATOM     25  ND2 ASN A   9      -9.861   5.602 -11.786  0.00  0.00    -0.329 N 
ATOM     26 HD21 ASN A   9     -10.194   5.832 -10.828  0.00  0.00    +0.145 HD
ATOM     27 HD22 ASN A   9      -9.300   4.742 -11.949  0.00  0.00    +0.145 HD
ATOM     28  OD1 ASN A   9     -10.812   7.444 -12.689  0.00  0.00    -0.275 OA
ENDBRANCH  23  24
ENDBRANCH  20  23
ENDBRANCH  17  20
ENDBRANCH  15  16
BRANCH  15  29
ATOM     29  CB  ARG A   8     -11.708   7.730 -18.864  0.00  0.00    +0.033 C 
BRANCH  29  30
ATOM     30  CG  ARG A   8     -12.170   8.774 -19.875  0.00  0.00    +0.045 C 
BRANCH  30  31
ATOM     31  CD  ARG A   8     -11.356   8.791 -21.155  0.00  0.00    +0.174 C 
BRANCH  31  32
ATOM     32  NE  ARG A   8      -9.959   9.186 -21.003  0.00  0.00    -0.265 N 
ATOM     33  CZ  ARG A   8      -8.925   8.364 -20.856  0.00  0.00    +0.342 C 
ATOM     34  NH2 ARG A   8      -7.684   8.818 -20.722  0.00  0.00    -0.292 N 
ATOM     35 HH21 ARG A   8      -6.895   8.150 -20.609  0.00  0.00    +0.255 HD
ATOM     36 HH22 ARG A   8      -7.501   9.842 -20.730  0.00  0.00    +0.255 HD
ATOM     37  NH1 ARG A   8      -9.042   7.039 -20.821  0.00  0.00    -0.292 N 
ATOM     38 HH11 ARG A   8      -8.196   6.445 -20.704  0.00  0.00    +0.255 HD
ATOM     39 HH12 ARG A   8      -9.979   6.597 -20.911  0.00  0.00    +0.255 HD
ATOM     40  HE  ARG A   8      -9.754  10.206 -21.010  0.00  0.00    +0.259 HD
ENDBRANCH  31  32
ENDBRANCH  30  31
ENDBRANCH  29  30
ENDBRANCH  15  29
ENDBRANCH  13  15
ENDBRANCH  10  11
ENDBRANCH   7  10
ENDBRANCH   5   6
BRANCH   5  41
ATOM     41  CB  ILE A   6     -17.250   9.977 -12.385  0.00  0.00    +0.027 C 
ATOM     42  CG2 ILE A   6     -16.872   8.526 -12.662  0.00  0.00    +0.002 C 
BRANCH  41  43
ATOM     43  CG1 ILE A   6     -17.995  10.089 -11.042  0.00  0.00    +0.002 C 
ATOM     44  CD1 ILE A   6     -17.077   9.738  -9.879  0.00  0.00    +0.000 C 
ENDBRANCH  41  43
ENDBRANCH   5  41
ENDBRANCH   3   5
BRANCH   1  45
ATOM     45  CA  ILE A   5     -15.745  14.519 -11.397  0.00  0.00    +0.149 C 
BRANCH  45  47
ATOM     46  C   ASN A   4     -16.930  15.826  -9.681  0.00  0.00    +0.241 C 
ATOM     47  N   ILE A   5     -15.893  15.120 -10.088  0.00  0.00    -0.297 N 
ATOM     48  H   ILE A   5     -15.115  14.983  -9.411  0.00  0.00    +0.150 HD
ATOM     49  O   ASN A   4     -17.973  16.029 -10.318  0.00  0.00    -0.273 OA
BRANCH  46  50
ATOM     50  CA  ASN A   4     -16.806  16.460  -8.290  0.00  0.00    +0.158 C 
BRANCH  50  52
ATOM     51  C   VAL A   3     -16.323  18.759  -8.991  0.00  0.00    +0.241 C 
ATOM     52  N   ASN A   4     -17.106  17.873  -8.385  0.00  0.00    -0.297 N 
ATOM     53  H   ASN A   4     -17.988  18.215  -7.953  0.00  0.00    +0.150 HD
ATOM     54  O   VAL A   3     -15.216  18.428  -9.411  0.00  0.00    -0.273 OA
BRANCH  51  55
ATOM     55  CA  VAL A   3     -16.839  20.185  -9.090  0.00  0.00    +0.149 C 
BRANCH  55  58
ATOM     56  C   PRO A   2     -15.994  22.328  -8.261  0.00  0.00    +0.241 C 
ATOM     57  O   PRO A   2     -17.111  22.678  -7.905  0.00  0.00    -0.273 OA
ATOM     58  N   VAL A   3     -15.774  21.152  -8.846  0.00  0.00    -0.297 N 
ATOM     59  H   VAL A   3     -14.805  20.914  -9.140  0.00  0.00    +0.150 HD
BRANCH  56  63
ATOM     60  C   THR A   1     -13.135  21.687  -7.168  0.00  0.00    +0.244 C 
ATOM     61  O   THR A   1     -13.817  21.554  -6.151  0.00  0.00    -0.273 OA
ATOM     62  N   PRO A   2     -13.547  22.463  -8.166  0.00  0.00    -0.272 N 
ATOM     63  CA  PRO A   2     -14.793  23.225  -8.018  0.00  0.00    +0.152 C 
ATOM     64  CB  PRO A   2     -14.630  24.321  -9.066  0.00  0.00    +0.031 C 
ATOM     65  CG  PRO A   2     -13.704  23.793 -10.096  0.00  0.00    +0.024 C 
ATOM     66  CD  PRO A   2     -12.913  22.680  -9.474  0.00  0.00    +0.094 C 
BRANCH  60  67
ATOM     67  CA  THR A   1     -11.803  20.969  -7.342  0.00  0.00    +0.172 C 
BRANCH  67  68
ATOM     68  N   THR A   1     -11.089  20.823  -6.072  0.00  0.00    -0.236 NA
ATOM     69  H   THR A   1     -11.131  19.933  -5.536  0.00  0.00    +0.142 HD
ENDBRANCH  67  68
BRANCH  67  70
ATOM     70  CB  THR A   1     -12.066  19.600  -8.006  0.00  0.00    +0.135 C 
ATOM     71  CG2 THR A   1     -12.888  18.707  -7.096  0.00  0.00    +0.034 C 
BRANCH  70  72
ATOM     72  OG1 THR A   1     -12.821  19.837  -9.194  0.00  0.00    -0.383 OA
ATOM     73  HG1 THR A   1     -13.006  18.975  -9.644  0.00  0.00    +0.210 HD
ENDBRANCH  70  72
ENDBRANCH  67  70
ENDBRANCH  60  67
ENDBRANCH  56  63
ENDBRANCH  55  58
BRANCH  55  74
ATOM     74  CB  VAL A   3     -17.453  20.479 -10.471  0.00  0.00    +0.027 C 
ATOM     75  CG2 VAL A   3     -18.793  19.781 -10.642  0.00  0.00    +0.002 C 
ATOM     76  CG1 VAL A   3     -16.462  20.081 -11.545  0.00  0.00    +0.002 C 
ENDBRANCH  55  74
ENDBRANCH  51  55
ENDBRANCH  50  52
BRANCH  50  77
ATOM     77  CB  ASN A   4     -17.753  15.737  -7.332  0.00  0.00    +0.114 C 
BRANCH  77  78
ATOM     78  CG  ASN A   4     -17.547  16.121  -5.880  0.00  0.00    +0.222 C 
ATOM     79  ND2 ASN A   4     -18.606  16.044  -5.079  0.00  0.00    -0.329 N 
ATOM     80 HD21 ASN A   4     -18.518  16.299  -4.075  0.00  0.00    +0.145 HD
ATOM     81 HD22 ASN A   4     -19.522  15.729  -5.457  0.00  0.00    +0.145 HD
ATOM     82  OD1 ASN A   4     -16.446  16.488  -5.478  0.00  0.00    -0.275 OA
ENDBRANCH  77  78
ENDBRANCH  50  77
ENDBRANCH  46  50
ENDBRANCH  45  47
BRANCH  45  83
ATOM     83  CB  ILE A   5     -14.479  15.128 -12.066  0.00  0.00    +0.027 C 
ATOM     84  CG2 ILE A   5     -14.187  14.488 -13.408  0.00  0.00    +0.002 C 
BRANCH  83  85
ATOM     85  CG1 ILE A   5     -14.575  16.649 -12.189  0.00  0.00    +0.002 C 
ATOM     86  CD1 ILE A   5     -15.736  17.033 -13.089  0.00  0.00    +0.000 C 
ENDBRANCH  83  85
ENDBRANCH  45  83
ENDBRANCH   1  45
TORSDOF 32
REMARK  Name = ../refined-set-2016/2r3t/2r3t_pocket.pdb
REMARK  231 active torsions:
REMARK  status: ('A' for Active; 'I' for Inactive)
REMARK    1  A    between atoms: _1  and  _3
REMARK    2  A    between atoms: _3  and  _4
REMARK    3  A    between atoms: _3  and  _6
REMARK    4  A    between atoms: _6  and  _7
REMARK    5  A    between atoms: _7  and  _8
REMARK    6  A    between atoms: _8  and  _9
REMARK    7  A    between atoms: _18  and  _20
REMARK    8  A    between atoms: _20  and  _21
REMARK    9  A    between atoms: _20  and  _23
REMARK   10  A    between atoms: _23  and  _24
REMARK   11  A    between atoms: _27  and  _29
REMARK   12  A    between atoms: _29  and  _30
REMARK   13  A    between atoms: _29  and  _32
REMARK   14  A    between atoms: _32  and  _33
REMARK   15  A    between atoms: _36  and  _38
REMARK   16  A    between atoms: _38  and  _39
REMARK   17  A    between atoms: _38  and  _41
REMARK   18  A    between atoms: _41  and  _42
REMARK   19  A    between atoms: _45  and  _47
REMARK   20  A    between atoms: _47  and  _48
REMARK   21  A    between atoms: _47  and  _50
REMARK   22  A    between atoms: _50  and  _51
REMARK   23  A    between atoms: _54  and  _56
REMARK   24  A    between atoms: _56  and  _57
REMARK   25  A    between atoms: _59  and  _61
REMARK   26  A    between atoms: _61  and  _62
REMARK   27  A    between atoms: _65  and  _67
REMARK   28  A    between atoms: _67  and  _68
REMARK   29  A    between atoms: _67  and  _70
REMARK   30  A    between atoms: _70  and  _71
REMARK   31  A    between atoms: _74  and  _76
REMARK   32  A    between atoms: _76  and  _77
REMARK   33  A    between atoms: _76  and  _79
REMARK   34  A    between atoms: _79  and  _80
REMARK   35  A    between atoms: _83  and  _85
REMARK   36  A    between atoms: _85  and  _86
REMARK   37  A    between atoms: _85  and  _88
REMARK   38  A    between atoms: _88  and  _89
REMARK   39  A    between atoms: _92  and  _94
REMARK   40  A    between atoms: _94  and  _95
REMARK   41  A    between atoms: _94  and  _97
REMARK   42  A    between atoms: _100  and  _102
REMARK   43  A    between atoms: _102  and  _103
REMARK   44  A    between atoms: _102  and  _105
REMARK   45  A    between atoms: _105  and  _106
REMARK   46  A    between atoms: _106  and  _107
REMARK   47  A    between atoms: _107  and  _108
REMARK   48  A    between atoms: _108  and  _109
REMARK   49  A    between atoms: _113  and  _115
REMARK   50  A    between atoms: _115  and  _116
REMARK   51  A    between atoms: _115  and  _118
REMARK   52  A    between atoms: _118  and  _119
REMARK   53  A    between atoms: _119  and  _120
REMARK   54  A    between atoms: _122  and  _124
REMARK   55  A    between atoms: _124  and  _125
REMARK   56  A    between atoms: _124  and  _127
REMARK   57  A    between atoms: _127  and  _128
REMARK   58  A    between atoms: _131  and  _133
REMARK   59  A    between atoms: _133  and  _134
REMARK   60  A    between atoms: _136  and  _138
REMARK   61  A    between atoms: _138  and  _139
REMARK   62  A    between atoms: _141  and  _143
REMARK   63  A    between atoms: _143  and  _144
REMARK   64  A    between atoms: _143  and  _146
REMARK   65  A    between atoms: _149  and  _151
REMARK   66  A    between atoms: _151  and  _152
REMARK   67  A    between atoms: _154  and  _156
REMARK   68  A    between atoms: _156  and  _157
REMARK   69  A    between atoms: _159  and  _161
REMARK   70  A    between atoms: _161  and  _162
REMARK   71  A    between atoms: _161  and  _164
REMARK   72  A    between atoms: _164  and  _165
REMARK   73  A    between atoms: _171  and  _173
REMARK   74  A    between atoms: _173  and  _174
REMARK   75  A    between atoms: _173  and  _176
REMARK   76  A    between atoms: _176  and  _177
REMARK   77  A    between atoms: _180  and  _182
REMARK   78  A    between atoms: _182  and  _183
REMARK   79  A    between atoms: _182  and  _185
REMARK   80  A    between atoms: _188  and  _190
REMARK   81  A    between atoms: _190  and  _191
REMARK   82  A    between atoms: _190  and  _193
REMARK   83  A    between atoms: _193  and  _194
REMARK   84  A    between atoms: _197  and  _199
REMARK   85  A    between atoms: _199  and  _200
REMARK   86  A    between atoms: _199  and  _202
REMARK   87  A    between atoms: _202  and  _203
REMARK   88  A    between atoms: _207  and  _208
REMARK   89  A    between atoms: _213  and  _215
REMARK   90  A    between atoms: _215  and  _216
REMARK   91  A    between atoms: _215  and  _218
REMARK   92  A    between atoms: _221  and  _223
REMARK   93  A    between atoms: _223  and  _224
REMARK   94  A    between atoms: _223  and  _226
REMARK   95  A    between atoms: _226  and  _227
REMARK   96  A    between atoms: _232  and  _234
REMARK   97  A    between atoms: _234  and  _235
REMARK   98  A    between atoms: _234  and  _237
REMARK   99  A    between atoms: _237  and  _238
REMARK  100  A    between atoms: _241  and  _243
REMARK  101  A    between atoms: _243  and  _244
REMARK  102  A    between atoms: _243  and  _246
REMARK  103  A    between atoms: _246  and  _247
REMARK  104  A    between atoms: _250  and  _252
REMARK  105  A    between atoms: _252  and  _253
REMARK  106  A    between atoms: _255  and  _257
REMARK  107  A    between atoms: _257  and  _258
REMARK  108  A    between atoms: _257  and  _260
REMARK  109  A    between atoms: _260  and  _261
REMARK  110  A    between atoms: _261  and  _262
REMARK  111  A    between atoms: _262  and  _263
REMARK  112  A    between atoms: _272  and  _274
REMARK  113  A    between atoms: _274  and  _275
REMARK  114  A    between atoms: _274  and  _277
REMARK  115  A    between atoms: _277  and  _278
REMARK  116  A    between atoms: _283  and  _285
REMARK  117  A    between atoms: _285  and  _286
REMARK  118  A    between atoms: _285  and  _288
REMARK  119  A    between atoms: _288  and  _289
REMARK  120  A    between atoms: _289  and  _290
REMARK  121  A    between atoms: _290  and  _291
REMARK  122  A    between atoms: _300  and  _302
REMARK  123  A    between atoms: _302  and  _303
REMARK  124  A    between atoms: _302  and  _305
REMARK  125  A    between atoms: _305  and  _306
REMARK  126  A    between atoms: _309  and  _311
REMARK  127  A    between atoms: _311  and  _312
REMARK  128  A    between atoms: _311  and  _314
REMARK  129  A    between atoms: _314  and  _315
REMARK  130  A    between atoms: _318  and  _320
REMARK  131  A    between atoms: _320  and  _321
REMARK  132  A    between atoms: _320  and  _323
REMARK  133  A    between atoms: _323  and  _324
REMARK  134  A    between atoms: _327  and  _329
REMARK  135  A    between atoms: _329  and  _330
REMARK  136  A    between atoms: _329  and  _332
REMARK  137  A    between atoms: _332  and  _333
REMARK  138  A    between atoms: _336  and  _338
REMARK  139  A    between atoms: _338  and  _339
REMARK  140  A    between atoms: _341  and  _343
REMARK  141  A    between atoms: _343  and  _344
REMARK  142  A    between atoms: _347  and  _349
REMARK  143  A    between atoms: _349  and  _350
REMARK  144  A    between atoms: _349  and  _352
REMARK  145  A    between atoms: _352  and  _353
REMARK  146  A    between atoms: _356  and  _358
REMARK  147  A    between atoms: _358  and  _359
REMARK  148  A    between atoms: _358  and  _361
REMARK  149  A    between atoms: _361  and  _362
REMARK  150  A    between atoms: _365  and  _367
REMARK  151  A    between atoms: _367  and  _368
REMARK  152  A    between atoms: _367  and  _370
REMARK  153  A    between atoms: _370  and  _371
REMARK  154  A    between atoms: _374  and  _376
REMARK  155  A    between atoms: _376  and  _377
REMARK  156  A    between atoms: _376  and  _379
REMARK  157  A    between atoms: _382  and  _384
REMARK  158  A    between atoms: _384  and  _385
REMARK  159  A    between atoms: _384  and  _387
REMARK  160  A    between atoms: _387  and  _388
REMARK  161  A    between atoms: _388  and  _389
REMARK  162  A    between atoms: _389  and  _390
REMARK  163  A    between atoms: _390  and  _391
REMARK  164  A    between atoms: _395  and  _397
REMARK  165  A    between atoms: _397  and  _398
REMARK  166  A    between atoms: _397  and  _400
REMARK  167  A    between atoms: _400  and  _401
REMARK  168  A    between atoms: _401  and  _402
REMARK  169  A    between atoms: _404  and  _406
REMARK  170  A    between atoms: _406  and  _407
REMARK  171  A    between atoms: _406  and  _409
REMARK  172  A    between atoms: _409  and  _410
REMARK  173  A    between atoms: _413  and  _415
REMARK  174  A    between atoms: _415  and  _416
REMARK  175  A    between atoms: _418  and  _420
REMARK  176  A    between atoms: _420  and  _421
REMARK  177  A    between atoms: _423  and  _425
REMARK  178  A    between atoms: _425  and  _426
REMARK  179  A    between atoms: _425  and  _428
REMARK  180  A    between atoms: _431  and  _433
REMARK  181  A    between atoms: _433  and  _434
REMARK  182  A    between atoms: _436  and  _438
REMARK  183  A    between atoms: _438  and  _439
REMARK  184  A    between atoms: _441  and  _443
REMARK  185  A    between atoms: _443  and  _444
REMARK  186  A    between atoms: _443  and  _446
REMARK  187  A    between atoms: _446  and  _447
REMARK  188  A    between atoms: _453  and  _455
REMARK  189  A    between atoms: _455  and  _456
REMARK  190  A    between atoms: _455  and  _458
REMARK  191  A    between atoms: _458  and  _459
REMARK  192  A    between atoms: _462  and  _464
REMARK  193  A    between atoms: _464  and  _465
REMARK  194  A    between atoms: _464  and  _467
REMARK  195  A    between atoms: _470  and  _472
REMARK  196  A    between atoms: _472  and  _473
REMARK  197  A    between atoms: _472  and  _475
REMARK  198  A    between atoms: _475  and  _476
REMARK  199  A    between atoms: _480  and  _481
REMARK  200  A    between atoms: _486  and  _488
REMARK  201  A    between atoms: _488  and  _489
REMARK  202  A    between atoms: _488  and  _491
REMARK  203  A    between atoms: _491  and  _492
REMARK  204  A    between atoms: _496  and  _497
REMARK  205  A    between atoms: _502  and  _504
REMARK  206  A    between atoms: _504  and  _505
REMARK  207  A    between atoms: _504  and  _507
REMARK  208  A    between atoms: _510  and  _512
REMARK  209  A    between atoms: _512  and  _513
REMARK  210  A    between atoms: _512  and  _515
REMARK  211  A    between atoms: _515  and  _516
REMARK  212  A    between atoms: _521  and  _523
REMARK  213  A    between atoms: _523  and  _524
REMARK  214  A    between atoms: _523  and  _526
REMARK  215  A    between atoms: _526  and  _527
REMARK  216  A    between atoms: _530  and  _532
REMARK  217  A    between atoms: _532  and  _533
REMARK  218  A    between atoms: _532  and  _535
REMARK  219  A    between atoms: _535  and  _536
REMARK  220  A    between atoms: _539  and  _541
REMARK  221  A    between atoms: _541  and  _542
REMARK  222  A    between atoms: _544  and  _546
REMARK  223  A    between atoms: _546  and  _547
REMARK  224  A    between atoms: _546  and  _549
REMARK  225  A    between atoms: _549  and  _550
REMARK  226  A    between atoms: _550  and  _551
REMARK  227  A    between atoms: _551  and  _552
REMARK  228  A    between atoms: _561  and  _563
REMARK  229  A    between atoms: _563  and  _564
REMARK  230  A    between atoms: _563  and  _566
REMARK  231  A    between atoms: _566  and  _567
REMARK                            x       y       z     vdW  Elec       q    Type
REMARK                         _______ _______ _______ _____ _____    ______ ____
ROOT
ATOM      1  NE  ARG A   1      -6.075  12.818 -22.423  0.00  0.00    -0.265 N 
ATOM      2  HE  ARG A   1      -5.654  12.090 -21.811  0.00  0.00    +0.259 HD
ATOM      3  CZ  ARG A   1      -5.772  14.099 -22.193  0.00  0.00    +0.342 C 
ATOM      4  NH2 ARG A   1      -4.958  14.488 -21.219  0.00  0.00    -0.292 N 
ATOM      5 HH21 ARG A   1      -4.523  13.782 -20.592  0.00  0.00    +0.255 HD
ATOM      6 HH22 ARG A   1      -4.755  15.499 -21.083  0.00  0.00    +0.255 HD
ATOM      7  NH1 ARG A   1      -6.309  15.030 -22.972  0.00  0.00    -0.292 N 
ATOM      8 HH11 ARG A   1      -6.087  16.033 -22.812  0.00  0.00    +0.255 HD
ATOM      9 HH12 ARG A   1      -6.951  14.756 -23.743  0.00  0.00    +0.255 HD
ENDROOT
BRANCH   1  10
ATOM     10  CD  ARG A   1      -6.972  12.395 -23.497  0.00  0.00    +0.174 C 
BRANCH  10  11
ATOM     11  CG  ARG A   1      -7.377  10.937 -23.485  0.00  0.00    +0.045 C 
BRANCH  11  12
ATOM     12  CB  ARG A   1      -8.117  10.573 -24.764  0.00  0.00    +0.029 C 
BRANCH  12  13
ATOM     13  CA  ARG A   1      -9.123   9.434 -24.654  0.00  0.00    +0.133 C 
BRANCH  13  14
ATOM     14  N   ARG A   1      -8.409   8.169 -24.482  0.00  0.00    -0.239 NA
ATOM     15  H   ARG A   1      -7.371   8.143 -24.534  0.00  0.00    +0.142 HD
ENDBRANCH  13  14
BRANCH  13  16
ATOM     16  C   ARG A   1     -10.009   9.350 -25.896  0.00  0.00    +0.224 C 
ATOM     17  O   ARG A   1      -9.511   8.835 -26.911  0.00  0.00    -0.287 OA
ENDBRANCH  13  16
ENDBRANCH  12  13
ENDBRANCH  11  12
ENDBRANCH  10  11
ENDBRANCH   1  10
TORSDOF 6
REMARK  Name = ../refined-set-2016/2r3t/2r3t_pocket.pdb
REMARK  231 active torsions:
REMARK  status: ('A' for Active; 'I' for Inactive)
REMARK    1  A    between atoms: _1  and  _3
REMARK    2  A    between atoms: _3  and  _4
REMARK    3  A    between atoms: _3  and  _6
REMARK    4  A    between atoms: _6  and  _7
REMARK    5  A    between atoms: _7  and  _8
REMARK    6  A    between atoms: _8  and  _9
REMARK    7  A    between atoms: _18  and  _20
REMARK    8  A    between atoms: _20  and  _21
REMARK    9  A    between atoms: _20  and  _23
REMARK   10  A    between atoms: _23  and  _24
REMARK   11  A    between atoms: _27  and  _29
REMARK   12  A    between atoms: _29  and  _30
REMARK   13  A    between atoms: _29  and  _32
REMARK   14  A    between atoms: _32  and  _33
REMARK   15  A    between atoms: _36  and  _38
REMARK   16  A    between atoms: _38  and  _39
REMARK   17  A    between atoms: _38  and  _41
REMARK   18  A    between atoms: _41  and  _42
REMARK   19  A    between atoms: _45  and  _47
REMARK   20  A    between atoms: _47  and  _48
REMARK   21  A    between atoms: _47  and  _50
REMARK   22  A    between atoms: _50  and  _51
REMARK   23  A    between atoms: _54  and  _56
REMARK   24  A    between atoms: _56  and  _57
REMARK   25  A    between atoms: _59  and  _61
REMARK   26  A    between atoms: _61  and  _62
REMARK   27  A    between atoms: _65  and  _67
REMARK   28  A    between atoms: _67  and  _68
REMARK   29  A    between atoms: _67  and  _70
REMARK   30  A    between atoms: _70  and  _71
REMARK   31  A    between atoms: _74  and  _76
REMARK   32  A    between atoms: _76  and  _77
REMARK   33  A    between atoms: _76  and  _79
REMARK   34  A    between atoms: _79  and  _80
REMARK   35  A    between atoms: _83  and  _85
REMARK   36  A    between atoms: _85  and  _86
REMARK   37  A    between atoms: _85  and  _88
REMARK   38  A    between atoms: _88  and  _89
REMARK   39  A    between atoms: _92  and  _94
REMARK   40  A    between atoms: _94  and  _95
REMARK   41  A    between atoms: _94  and  _97
REMARK   42  A    between atoms: _100  and  _102
REMARK   43  A    between atoms: _102  and  _103
REMARK   44  A    between atoms: _102  and  _105
REMARK   45  A    between atoms: _105  and  _106
REMARK   46  A    between atoms: _106  and  _107
REMARK   47  A    between atoms: _107  and  _108
REMARK   48  A    between atoms: _108  and  _109
REMARK   49  A    between atoms: _113  and  _115
REMARK   50  A    between atoms: _115  and  _116
REMARK   51  A    between atoms: _115  and  _118
REMARK   52  A    between atoms: _118  and  _119
REMARK   53  A    between atoms: _119  and  _120
REMARK   54  A    between atoms: _122  and  _124
REMARK   55  A    between atoms: _124  and  _125
REMARK   56  A    between atoms: _124  and  _127
REMARK   57  A    between atoms: _127  and  _128
REMARK   58  A    between atoms: _131  and  _133
REMARK   59  A    between atoms: _133  and  _134
REMARK   60  A    between atoms: _136  and  _138
REMARK   61  A    between atoms: _138  and  _139
REMARK   62  A    between atoms: _141  and  _143
REMARK   63  A    between atoms: _143  and  _144
REMARK   64  A    between atoms: _143  and  _146
REMARK   65  A    between atoms: _149  and  _151
REMARK   66  A    between atoms: _151  and  _152
REMARK   67  A    between atoms: _154  and  _156
REMARK   68  A    between atoms: _156  and  _157
REMARK   69  A    between atoms: _159  and  _161
REMARK   70  A    between atoms: _161  and  _162
REMARK   71  A    between atoms: _161  and  _164
REMARK   72  A    between atoms: _164  and  _165
REMARK   73  A    between atoms: _171  and  _173
REMARK   74  A    between atoms: _173  and  _174
REMARK   75  A    between atoms: _173  and  _176
REMARK   76  A    between atoms: _176  and  _177
REMARK   77  A    between atoms: _180  and  _182
REMARK   78  A    between atoms: _182  and  _183
REMARK   79  A    between atoms: _182  and  _185
REMARK   80  A    between atoms: _188  and  _190
REMARK   81  A    between atoms: _190  and  _191
REMARK   82  A    between atoms: _190  and  _193
REMARK   83  A    between atoms: _193  and  _194
REMARK   84  A    between atoms: _197  and  _199
REMARK   85  A    between atoms: _199  and  _200
REMARK   86  A    between atoms: _199  and  _202
REMARK   87  A    between atoms: _202  and  _203
REMARK   88  A    between atoms: _207  and  _208
REMARK   89  A    between atoms: _213  and  _215
REMARK   90  A    between atoms: _215  and  _216
REMARK   91  A    between atoms: _215  and  _218
REMARK   92  A    between atoms: _221  and  _223
REMARK   93  A    between atoms: _223  and  _224
REMARK   94  A    between atoms: _223  and  _226
REMARK   95  A    between atoms: _226  and  _227
REMARK   96  A    between atoms: _232  and  _234
REMARK   97  A    between atoms: _234  and  _235
REMARK   98  A    between atoms: _234  and  _237
REMARK   99  A    between atoms: _237  and  _238
REMARK  100  A    between atoms: _241  and  _243
REMARK  101  A    between atoms: _243  and  _244
REMARK  102  A    between atoms: _243  and  _246
REMARK  103  A    between atoms: _246  and  _247
REMARK  104  A    between atoms: _250  and  _252
REMARK  105  A    between atoms: _252  and  _253
REMARK  106  A    between atoms: _255  and  _257
REMARK  107  A    between atoms: _257  and  _258
REMARK  108  A    between atoms: _257  and  _260
REMARK  109  A    between atoms: _260  and  _261
REMARK  110  A    between atoms: _261  and  _262
REMARK  111  A    between atoms: _262  and  _263
REMARK  112  A    between atoms: _272  and  _274
REMARK  113  A    between atoms: _274  and  _275
REMARK  114  A    between atoms: _274  and  _277
REMARK  115  A    between atoms: _277  and  _278
REMARK  116  A    between atoms: _283  and  _285
REMARK  117  A    between atoms: _285  and  _286
REMARK  118  A    between atoms: _285  and  _288
REMARK  119  A    between atoms: _288  and  _289
REMARK  120  A    between atoms: _289  and  _290
REMARK  121  A    between atoms: _290  and  _291
REMARK  122  A    between atoms: _300  and  _302
REMARK  123  A    between atoms: _302  and  _303
REMARK  124  A    between atoms: _302  and  _305
REMARK  125  A    between atoms: _305  and  _306
REMARK  126  A    between atoms: _309  and  _311
REMARK  127  A    between atoms: _311  and  _312
REMARK  128  A    between atoms: _311  and  _314
REMARK  129  A    between atoms: _314  and  _315
REMARK  130  A    between atoms: _318  and  _320
REMARK  131  A    between atoms: _320  and  _321
REMARK  132  A    between atoms: _320  and  _323
REMARK  133  A    between atoms: _323  and  _324
REMARK  134  A    between atoms: _327  and  _329
REMARK  135  A    between atoms: _329  and  _330
REMARK  136  A    between atoms: _329  and  _332
REMARK  137  A    between atoms: _332  and  _333
REMARK  138  A    between atoms: _336  and  _338
REMARK  139  A    between atoms: _338  and  _339
REMARK  140  A    between atoms: _341  and  _343
REMARK  141  A    between atoms: _343  and  _344
REMARK  142  A    between atoms: _347  and  _349
REMARK  143  A    between atoms: _349  and  _350
REMARK  144  A    between atoms: _349  and  _352
REMARK  145  A    between atoms: _352  and  _353
REMARK  146  A    between atoms: _356  and  _358
REMARK  147  A    between atoms: _358  and  _359
REMARK  148  A    between atoms: _358  and  _361
REMARK  149  A    between atoms: _361  and  _362
REMARK  150  A    between atoms: _365  and  _367
REMARK  151  A    between atoms: _367  and  _368
REMARK  152  A    between atoms: _367  and  _370
REMARK  153  A    between atoms: _370  and  _371
REMARK  154  A    between atoms: _374  and  _376
REMARK  155  A    between atoms: _376  and  _377
REMARK  156  A    between atoms: _376  and  _379
REMARK  157  A    between atoms: _382  and  _384
REMARK  158  A    between atoms: _384  and  _385
REMARK  159  A    between atoms: _384  and  _387
REMARK  160  A    between atoms: _387  and  _388
REMARK  161  A    between atoms: _388  and  _389
REMARK  162  A    between atoms: _389  and  _390
REMARK  163  A    between atoms: _390  and  _391
REMARK  164  A    between atoms: _395  and  _397
REMARK  165  A    between atoms: _397  and  _398
REMARK  166  A    between atoms: _397  and  _400
REMARK  167  A    between atoms: _400  and  _401
REMARK  168  A    between atoms: _401  and  _402
REMARK  169  A    between atoms: _404  and  _406
REMARK  170  A    between atoms: _406  and  _407
REMARK  171  A    between atoms: _406  and  _409
REMARK  172  A    between atoms: _409  and  _410
REMARK  173  A    between atoms: _413  and  _415
REMARK  174  A    between atoms: _415  and  _416
REMARK  175  A    between atoms: _418  and  _420
REMARK  176  A    between atoms: _420  and  _421
REMARK  177  A    between atoms: _423  and  _425
REMARK  178  A    between atoms: _425  and  _426
REMARK  179  A    between atoms: _425  and  _428
REMARK  180  A    between atoms: _431  and  _433
REMARK  181  A    between atoms: _433  and  _434
REMARK  182  A    between atoms: _436  and  _438
REMARK  183  A    between atoms: _438  and  _439
REMARK  184  A    between atoms: _441  and  _443
REMARK  185  A    between atoms: _443  and  _444
REMARK  186  A    between atoms: _443  and  _446
REMARK  187  A    between atoms: _446  and  _447
REMARK  188  A    between atoms: _453  and  _455
REMARK  189  A    between atoms: _455  and  _456
REMARK  190  A    between atoms: _455  and  _458
REMARK  191  A    between atoms: _458  and  _459
REMARK  192  A    between atoms: _462  and  _464
REMARK  193  A    between atoms: _464  and  _465
REMARK  194  A    between atoms: _464  and  _467
REMARK  195  A    between atoms: _470  and  _472
REMARK  196  A    between atoms: _472  and  _473
REMARK  197  A    between atoms: _472  and  _475
REMARK  198  A    between atoms: _475  and  _476
REMARK  199  A    between atoms: _480  and  _481
REMARK  200  A    between atoms: _486  and  _488
REMARK  201  A    between atoms: _488  and  _489
REMARK  202  A    between atoms: _488  and  _491
REMARK  203  A    between atoms: _491  and  _492
REMARK  204  A    between atoms: _496  and  _497
REMARK  205  A    between atoms: _502  and  _504
REMARK  206  A    between atoms: _504  and  _505
REMARK  207  A    between atoms: _504  and  _507
REMARK  208  A    between atoms: _510  and  _512
REMARK  209  A    between atoms: _512  and  _513
REMARK  210  A    between atoms: _512  and  _515
REMARK  211  A    between atoms: _515  and  _516
REMARK  212  A    between atoms: _521  and  _523
REMARK  213  A    between atoms: _523  and  _524
REMARK  214  A    between atoms: _523  and  _526
REMARK  215  A    between atoms: _526  and  _527
REMARK  216  A    between atoms: _530  and  _532
REMARK  217  A    between atoms: _532  and  _533
REMARK  218  A    between atoms: _532  and  _535
REMARK  219  A    between atoms: _535  and  _536
REMARK  220  A    between atoms: _539  and  _541
REMARK  221  A    between atoms: _541  and  _542
REMARK  222  A    between atoms: _544  and  _546
REMARK  223  A    between atoms: _546  and  _547
REMARK  224  A    between atoms: _546  and  _549
REMARK  225  A    between atoms: _549  and  _550
REMARK  226  A    between atoms: _550  and  _551
REMARK  227  A    between atoms: _551  and  _552
REMARK  228  A    between atoms: _561  and  _563
REMARK  229  A    between atoms: _563  and  _564
REMARK  230  A    between atoms: _563  and  _566
REMARK  231  A    between atoms: _566  and  _567
REMARK                            x       y       z     vdW  Elec       q    Type
REMARK                         _______ _______ _______ _____ _____    ______ ____
ROOT
ATOM      1  C   GLY A   5     -17.636  19.028 -18.947  0.00  0.00    +0.243 C 
ATOM      2  O   GLY A   5     -17.761  19.947 -18.132  0.00  0.00    -0.273 OA
ATOM      3  N   ALA A   6     -17.418  19.269 -20.236  0.00  0.00    -0.297 N 
ATOM      4  H   ALA A   6     -17.279  18.462 -20.877  0.00  0.00    +0.150 HD
ENDROOT
BRANCH   3   5
ATOM      5  CA  ALA A   6     -17.366  20.612 -20.787  0.00  0.00    +0.149 C 
ATOM      6  CB  ALA A   6     -16.386  20.698 -21.948  0.00  0.00    +0.031 C 
BRANCH   5   7
ATOM      7  C   ALA A   6     -18.758  21.041 -21.254  0.00  0.00    +0.241 C 
ATOM      8  N   ASP A   7     -19.301  22.118 -20.695  0.00  0.00    -0.297 N 
ATOM      9  H   ASP A   7     -18.806  22.622 -19.931  0.00  0.00    +0.150 HD
ATOM     10  O   ALA A   6     -19.341  20.402 -22.114  0.00  0.00    -0.273 OA
BRANCH   8  11
ATOM     11  CA  ASP A   7     -20.603  22.585 -21.168  0.00  0.00    +0.160 C 
BRANCH  11  12
ATOM     12  C   ASP A   7     -20.598  23.073 -22.613  0.00  0.00    +0.241 C 
ATOM     13  N   ASP A   8     -19.480  23.631 -23.015  0.00  0.00    -0.297 N 
ATOM     14  H   ASP A   8     -18.668  23.585 -22.367  0.00  0.00    +0.150 HD
ATOM     15  O   ASP A   7     -21.575  22.988 -23.354  0.00  0.00    -0.273 OA
BRANCH  13  16
ATOM     16  CA  ASP A   8     -19.277  24.302 -24.275  0.00  0.00    +0.160 C 
BRANCH  16  17
ATOM     17  C   ASP A   8     -18.172  23.646 -25.094  0.00  0.00    +0.241 C 
ATOM     18  O   ASP A   8     -17.513  22.740 -24.584  0.00  0.00    -0.273 OA
ATOM     19  N   THR A   9     -18.031  24.168 -26.303  0.00  0.00    -0.295 N 
ATOM     20  H   THR A   9     -18.691  24.919 -26.590  0.00  0.00    +0.150 HD
BRANCH  19  21
ATOM     21  CA  THR A   9     -17.007  23.754 -27.257  0.00  0.00    +0.176 C 
BRANCH  21  22
ATOM     22  C   THR A   9     -15.915  24.811 -27.301  0.00  0.00    +0.243 C 
ATOM     23  N   VAL A  10     -14.692  24.385 -26.982  0.00  0.00    -0.298 N 
ATOM     24  H   VAL A  10     -14.542  23.374 -26.790  0.00  0.00    +0.150 HD
ATOM     25  O   THR A   9     -16.134  25.994 -27.573  0.00  0.00    -0.273 OA
BRANCH  23  26
ATOM     26  CA  VAL A  10     -13.570  25.293 -26.896  0.00  0.00    +0.137 C 
BRANCH  26  27
ATOM     27  CB  VAL A  10     -13.023  25.412 -25.462  0.00  0.00    +0.026 C 
ATOM     28  CG2 VAL A  10     -14.121  25.449 -24.424  0.00  0.00    +0.002 C 
ATOM     29  CG1 VAL A  10     -12.163  26.675 -25.407  0.00  0.00    +0.002 C 
ENDBRANCH  26  27
BRANCH  26  30
ATOM     30  C   VAL A  10     -12.408  24.828 -27.775  0.00  0.00    +0.227 C 
ATOM     31  O   VAL A  10     -11.862  23.738 -27.568  0.00  0.00    -0.286 OA
ENDBRANCH  26  30
ENDBRANCH  23  26
ENDBRANCH  21  22
BRANCH  21  32
ATOM     32  CB  THR A   9     -17.647  23.488 -28.630  0.00  0.00    +0.137 C 
ATOM     33  CG2 THR A   9     -16.586  23.132 -29.669  0.00  0.00    +0.034 C 
BRANCH  32  34
ATOM     34  OG1 THR A   9     -18.527  22.360 -28.553  0.00  0.00    -0.382 OA
ATOM     35  HG1 THR A   9     -19.240  22.544 -27.892  0.00  0.00    +0.210 HD
ENDBRANCH  32  34
ENDBRANCH  21  32
ENDBRANCH  19  21
ENDBRANCH  16  17
BRANCH  16  36
ATOM     36  CB  ASP A   8     -18.858  25.746 -23.988  0.00  0.00    +0.143 C 
BRANCH  36  37
ATOM     37  CG  ASP A   8     -19.780  26.405 -22.980  0.00  0.00    +0.367 C 
ATOM     38  OD2 ASP A   8     -19.351  26.585 -21.823  0.00  0.00    -0.246 OA
ATOM     39  OD1 ASP A   8     -20.908  26.735 -23.386  0.00  0.00    -0.246 OA
ENDBRANCH  36  37
ENDBRANCH  16  36
ENDBRANCH  13  16
ENDBRANCH  11  12
BRANCH  11  40
ATOM     40  CB  ASP A   7     -21.079  23.774 -20.324  0.00  0.00    +0.143 C 
BRANCH  40  41
ATOM     41  CG  ASP A   7     -21.269  23.427 -18.863  0.00  0.00    +0.367 C 
ATOM     42  OD2 ASP A   7     -21.139  24.365 -18.046  0.00  0.00    -0.246 OA
ATOM     43  OD1 ASP A   7     -21.525  22.255 -18.521  0.00  0.00    -0.246 OA
ENDBRANCH  40  41
ENDBRANCH  11  40
ENDBRANCH   8  11
ENDBRANCH   5   7
ENDBRANCH   3   5
BRANCH   1  44
ATOM     44  CA  GLY A   5     -17.713  17.571 -18.522  0.00  0.00    +0.176 C 
BRANCH  44  46
ATOM     45  C   THR A   4     -19.039  16.420 -20.217  0.00  0.00    +0.243 C 
ATOM     46  N   GLY A   5     -17.865  16.675 -19.668  0.00  0.00    -0.295 N 
ATOM     47  H   GLY A   5     -17.017  16.222 -20.065  0.00  0.00    +0.150 HD
ATOM     48  O   THR A   4     -20.093  16.885 -19.783  0.00  0.00    -0.273 OA
BRANCH  45  49
ATOM     49  CA  THR A   4     -19.047  15.537 -21.454  0.00  0.00    +0.176 C 
BRANCH  49  51
ATOM     50  C   ASP A   3     -17.077  16.279 -22.653  0.00  0.00    +0.241 C 
ATOM     51  N   THR A   4     -17.692  15.318 -21.967  0.00  0.00    -0.295 N 
ATOM     52  H   THR A   4     -17.211  14.412 -21.795  0.00  0.00    +0.150 HD
ATOM     53  O   ASP A   3     -17.563  17.395 -22.813  0.00  0.00    -0.273 OA
BRANCH  50  54
ATOM     54  CA  ASP A   3     -15.717  15.976 -23.254  0.00  0.00    +0.160 C 
BRANCH  54  57
ATOM     55  C   LEU A   2     -15.375  14.576 -25.204  0.00  0.00    +0.241 C 
ATOM     56  O   LEU A   2     -14.967  13.642 -24.506  0.00  0.00    -0.273 OA
ATOM     57  N   ASP A   3     -15.835  15.705 -24.684  0.00  0.00    -0.297 N 
ATOM     58  H   ASP A   3     -16.286  16.408 -25.303  0.00  0.00    +0.150 HD
BRANCH  55  59
ATOM     59  CA  LEU A   2     -15.319  14.511 -26.726  0.00  0.00    +0.149 C 
BRANCH  59  62
ATOM     60  C   LEU A   1     -13.172  15.563 -27.151  0.00  0.00    +0.238 C 
ATOM     61  O   LEU A   1     -13.634  16.691 -26.936  0.00  0.00    -0.274 OA
ATOM     62  N   LEU A   2     -13.910  14.465 -27.101  0.00  0.00    -0.297 N 
ATOM     63  H   LEU A   2     -13.476  13.549 -27.334  0.00  0.00    +0.150 HD
BRANCH  60  64
ATOM     64  CA  LEU A   1     -11.684  15.488 -27.446  0.00  0.00    +0.145 C 
BRANCH  64  65
ATOM     65  N   LEU A   1     -11.268  16.367 -28.524  0.00  0.00    -0.238 NA
ATOM     66  H   LEU A   1     -11.121  17.371 -28.296  0.00  0.00    +0.142 HD
ENDBRANCH  64  65
BRANCH  64  67
ATOM     67  CB  LEU A   1     -10.931  15.890 -26.169  0.00  0.00    +0.026 C 
BRANCH  67  68
ATOM     68  CG  LEU A   1     -11.147  15.049 -24.911  0.00  0.00    +0.002 C 
ATOM     69  CD2 LEU A   1     -10.464  15.690 -23.702  0.00  0.00    +0.000 C 
ATOM     70  CD1 LEU A   1     -10.633  13.637 -25.111  0.00  0.00    +0.000 C 
ENDBRANCH  67  68
ENDBRANCH  64  67
ENDBRANCH  60  64
ENDBRANCH  59  62
BRANCH  59  71
ATOM     71  CB  LEU A   2     -16.061  13.289 -27.264  0.00  0.00    +0.029 C 
BRANCH  71  72
ATOM     72  CG  LEU A   2     -15.849  13.001 -28.751  0.00  0.00    +0.002 C 
ATOM     73  CD2 LEU A   2     -16.745  11.875 -29.230  0.00  0.00    +0.000 C 
ATOM     74  CD1 LEU A   2     -16.125  14.258 -29.552  0.00  0.00    +0.000 C 
ENDBRANCH  71  72
ENDBRANCH  59  71
ENDBRANCH  55  59
ENDBRANCH  54  57
BRANCH  54  75
ATOM     75  CB  ASP A   3     -14.774  17.154 -23.057  0.00  0.00    +0.143 C 
BRANCH  75  76
ATOM     76  CG  ASP A   3     -14.400  17.449 -21.622  0.00  0.00    +0.367 C 
ATOM     77  OD2 ASP A   3     -15.140  17.068 -20.693  0.00  0.00    -0.246 OA
ATOM     78  OD1 ASP A   3     -13.345  18.092 -21.405  0.00  0.00    -0.246 OA
ENDBRANCH  75  76
ENDBRANCH  54  75
ENDBRANCH  50  54
ENDBRANCH  49  51
BRANCH  49  79
ATOM     79  CB  THR A   4     -19.757  14.221 -21.105  0.00  0.00    +0.137 C 
ATOM     80  CG2 THR A   4     -19.947  13.365 -22.347  0.00  0.00    +0.034 C 
BRANCH  79  81
ATOM     81  OG1 THR A   4     -18.934  13.481 -20.206  0.00  0.00    -0.382 OA
ATOM     82  HG1 THR A   4     -18.786  14.012 -19.384  0.00  0.00    +0.210 HD
ENDBRANCH  79  81
ENDBRANCH  49  79
ENDBRANCH  45  49
ENDBRANCH  44  46
ENDBRANCH   1  44
TORSDOF 35
REMARK  Name = ../refined-set-2016/2r3t/2r3t_pocket.pdb
REMARK  231 active torsions:
REMARK  status: ('A' for Active; 'I' for Inactive)
REMARK    1  A    between atoms: _1  and  _3
REMARK    2  A    between atoms: _3  and  _4
REMARK    3  A    between atoms: _3  and  _6
REMARK    4  A    between atoms: _6  and  _7
REMARK    5  A    between atoms: _7  and  _8
REMARK    6  A    between atoms: _8  and  _9
REMARK    7  A    between atoms: _18  and  _20
REMARK    8  A    between atoms: _20  and  _21
REMARK    9  A    between atoms: _20  and  _23
REMARK   10  A    between atoms: _23  and  _24
REMARK   11  A    between atoms: _27  and  _29
REMARK   12  A    between atoms: _29  and  _30
REMARK   13  A    between atoms: _29  and  _32
REMARK   14  A    between atoms: _32  and  _33
REMARK   15  A    between atoms: _36  and  _38
REMARK   16  A    between atoms: _38  and  _39
REMARK   17  A    between atoms: _38  and  _41
REMARK   18  A    between atoms: _41  and  _42
REMARK   19  A    between atoms: _45  and  _47
REMARK   20  A    between atoms: _47  and  _48
REMARK   21  A    between atoms: _47  and  _50
REMARK   22  A    between atoms: _50  and  _51
REMARK   23  A    between atoms: _54  and  _56
REMARK   24  A    between atoms: _56  and  _57
REMARK   25  A    between atoms: _59  and  _61
REMARK   26  A    between atoms: _61  and  _62
REMARK   27  A    between atoms: _65  and  _67
REMARK   28  A    between atoms: _67  and  _68
REMARK   29  A    between atoms: _67  and  _70
REMARK   30  A    between atoms: _70  and  _71
REMARK   31  A    between atoms: _74  and  _76
REMARK   32  A    between atoms: _76  and  _77
REMARK   33  A    between atoms: _76  and  _79
REMARK   34  A    between atoms: _79  and  _80
REMARK   35  A    between atoms: _83  and  _85
REMARK   36  A    between atoms: _85  and  _86
REMARK   37  A    between atoms: _85  and  _88
REMARK   38  A    between atoms: _88  and  _89
REMARK   39  A    between atoms: _92  and  _94
REMARK   40  A    between atoms: _94  and  _95
REMARK   41  A    between atoms: _94  and  _97
REMARK   42  A    between atoms: _100  and  _102
REMARK   43  A    between atoms: _102  and  _103
REMARK   44  A    between atoms: _102  and  _105
REMARK   45  A    between atoms: _105  and  _106
REMARK   46  A    between atoms: _106  and  _107
REMARK   47  A    between atoms: _107  and  _108
REMARK   48  A    between atoms: _108  and  _109
REMARK   49  A    between atoms: _113  and  _115
REMARK   50  A    between atoms: _115  and  _116
REMARK   51  A    between atoms: _115  and  _118
REMARK   52  A    between atoms: _118  and  _119
REMARK   53  A    between atoms: _119  and  _120
REMARK   54  A    between atoms: _122  and  _124
REMARK   55  A    between atoms: _124  and  _125
REMARK   56  A    between atoms: _124  and  _127
REMARK   57  A    between atoms: _127  and  _128
REMARK   58  A    between atoms: _131  and  _133
REMARK   59  A    between atoms: _133  and  _134
REMARK   60  A    between atoms: _136  and  _138
REMARK   61  A    between atoms: _138  and  _139
REMARK   62  A    between atoms: _141  and  _143
REMARK   63  A    between atoms: _143  and  _144
REMARK   64  A    between atoms: _143  and  _146
REMARK   65  A    between atoms: _149  and  _151
REMARK   66  A    between atoms: _151  and  _152
REMARK   67  A    between atoms: _154  and  _156
REMARK   68  A    between atoms: _156  and  _157
REMARK   69  A    between atoms: _159  and  _161
REMARK   70  A    between atoms: _161  and  _162
REMARK   71  A    between atoms: _161  and  _164
REMARK   72  A    between atoms: _164  and  _165
REMARK   73  A    between atoms: _171  and  _173
REMARK   74  A    between atoms: _173  and  _174
REMARK   75  A    between atoms: _173  and  _176
REMARK   76  A    between atoms: _176  and  _177
REMARK   77  A    between atoms: _180  and  _182
REMARK   78  A    between atoms: _182  and  _183
REMARK   79  A    between atoms: _182  and  _185
REMARK   80  A    between atoms: _188  and  _190
REMARK   81  A    between atoms: _190  and  _191
REMARK   82  A    between atoms: _190  and  _193
REMARK   83  A    between atoms: _193  and  _194
REMARK   84  A    between atoms: _197  and  _199
REMARK   85  A    between atoms: _199  and  _200
REMARK   86  A    between atoms: _199  and  _202
REMARK   87  A    between atoms: _202  and  _203
REMARK   88  A    between atoms: _207  and  _208
REMARK   89  A    between atoms: _213  and  _215
REMARK   90  A    between atoms: _215  and  _216
REMARK   91  A    between atoms: _215  and  _218
REMARK   92  A    between atoms: _221  and  _223
REMARK   93  A    between atoms: _223  and  _224
REMARK   94  A    between atoms: _223  and  _226
REMARK   95  A    between atoms: _226  and  _227
REMARK   96  A    between atoms: _232  and  _234
REMARK   97  A    between atoms: _234  and  _235
REMARK   98  A    between atoms: _234  and  _237
REMARK   99  A    between atoms: _237  and  _238
REMARK  100  A    between atoms: _241  and  _243
REMARK  101  A    between atoms: _243  and  _244
REMARK  102  A    between atoms: _243  and  _246
REMARK  103  A    between atoms: _246  and  _247
REMARK  104  A    between atoms: _250  and  _252
REMARK  105  A    between atoms: _252  and  _253
REMARK  106  A    between atoms: _255  and  _257
REMARK  107  A    between atoms: _257  and  _258
REMARK  108  A    between atoms: _257  and  _260
REMARK  109  A    between atoms: _260  and  _261
REMARK  110  A    between atoms: _261  and  _262
REMARK  111  A    between atoms: _262  and  _263
REMARK  112  A    between atoms: _272  and  _274
REMARK  113  A    between atoms: _274  and  _275
REMARK  114  A    between atoms: _274  and  _277
REMARK  115  A    between atoms: _277  and  _278
REMARK  116  A    between atoms: _283  and  _285
REMARK  117  A    between atoms: _285  and  _286
REMARK  118  A    between atoms: _285  and  _288
REMARK  119  A    between atoms: _288  and  _289
REMARK  120  A    between atoms: _289  and  _290
REMARK  121  A    between atoms: _290  and  _291
REMARK  122  A    between atoms: _300  and  _302
REMARK  123  A    between atoms: _302  and  _303
REMARK  124  A    between atoms: _302  and  _305
REMARK  125  A    between atoms: _305  and  _306
REMARK  126  A    between atoms: _309  and  _311
REMARK  127  A    between atoms: _311  and  _312
REMARK  128  A    between atoms: _311  and  _314
REMARK  129  A    between atoms: _314  and  _315
REMARK  130  A    between atoms: _318  and  _320
REMARK  131  A    between atoms: _320  and  _321
REMARK  132  A    between atoms: _320  and  _323
REMARK  133  A    between atoms: _323  and  _324
REMARK  134  A    between atoms: _327  and  _329
REMARK  135  A    between atoms: _329  and  _330
REMARK  136  A    between atoms: _329  and  _332
REMARK  137  A    between atoms: _332  and  _333
REMARK  138  A    between atoms: _336  and  _338
REMARK  139  A    between atoms: _338  and  _339
REMARK  140  A    between atoms: _341  and  _343
REMARK  141  A    between atoms: _343  and  _344
REMARK  142  A    between atoms: _347  and  _349
REMARK  143  A    between atoms: _349  and  _350
REMARK  144  A    between atoms: _349  and  _352
REMARK  145  A    between atoms: _352  and  _353
REMARK  146  A    between atoms: _356  and  _358
REMARK  147  A    between atoms: _358  and  _359
REMARK  148  A    between atoms: _358  and  _361
REMARK  149  A    between atoms: _361  and  _362
REMARK  150  A    between atoms: _365  and  _367
REMARK  151  A    between atoms: _367  and  _368
REMARK  152  A    between atoms: _367  and  _370
REMARK  153  A    between atoms: _370  and  _371
REMARK  154  A    between atoms: _374  and  _376
REMARK  155  A    between atoms: _376  and  _377
REMARK  156  A    between atoms: _376  and  _379
REMARK  157  A    between atoms: _382  and  _384
REMARK  158  A    between atoms: _384  and  _385
REMARK  159  A    between atoms: _384  and  _387
REMARK  160  A    between atoms: _387  and  _388
REMARK  161  A    between atoms: _388  and  _389
REMARK  162  A    between atoms: _389  and  _390
REMARK  163  A    between atoms: _390  and  _391
REMARK  164  A    between atoms: _395  and  _397
REMARK  165  A    between atoms: _397  and  _398
REMARK  166  A    between atoms: _397  and  _400
REMARK  167  A    between atoms: _400  and  _401
REMARK  168  A    between atoms: _401  and  _402
REMARK  169  A    between atoms: _404  and  _406
REMARK  170  A    between atoms: _406  and  _407
REMARK  171  A    between atoms: _406  and  _409
REMARK  172  A    between atoms: _409  and  _410
REMARK  173  A    between atoms: _413  and  _415
REMARK  174  A    between atoms: _415  and  _416
REMARK  175  A    between atoms: _418  and  _420
REMARK  176  A    between atoms: _420  and  _421
REMARK  177  A    between atoms: _423  and  _425
REMARK  178  A    between atoms: _425  and  _426
REMARK  179  A    between atoms: _425  and  _428
REMARK  180  A    between atoms: _431  and  _433
REMARK  181  A    between atoms: _433  and  _434
REMARK  182  A    between atoms: _436  and  _438
REMARK  183  A    between atoms: _438  and  _439
REMARK  184  A    between atoms: _441  and  _443
REMARK  185  A    between atoms: _443  and  _444
REMARK  186  A    between atoms: _443  and  _446
REMARK  187  A    between atoms: _446  and  _447
REMARK  188  A    between atoms: _453  and  _455
REMARK  189  A    between atoms: _455  and  _456
REMARK  190  A    between atoms: _455  and  _458
REMARK  191  A    between atoms: _458  and  _459
REMARK  192  A    between atoms: _462  and  _464
REMARK  193  A    between atoms: _464  and  _465
REMARK  194  A    between atoms: _464  and  _467
REMARK  195  A    between atoms: _470  and  _472
REMARK  196  A    between atoms: _472  and  _473
REMARK  197  A    between atoms: _472  and  _475
REMARK  198  A    between atoms: _475  and  _476
REMARK  199  A    between atoms: _480  and  _481
REMARK  200  A    between atoms: _486  and  _488
REMARK  201  A    between atoms: _488  and  _489
REMARK  202  A    between atoms: _488  and  _491
REMARK  203  A    between atoms: _491  and  _492
REMARK  204  A    between atoms: _496  and  _497
REMARK  205  A    between atoms: _502  and  _504
REMARK  206  A    between atoms: _504  and  _505
REMARK  207  A    between atoms: _504  and  _507
REMARK  208  A    between atoms: _510  and  _512
REMARK  209  A    between atoms: _512  and  _513
REMARK  210  A    between atoms: _512  and  _515
REMARK  211  A    between atoms: _515  and  _516
REMARK  212  A    between atoms: _521  and  _523
REMARK  213  A    between atoms: _523  and  _524
REMARK  214  A    between atoms: _523  and  _526
REMARK  215  A    between atoms: _526  and  _527
REMARK  216  A    between atoms: _530  and  _532
REMARK  217  A    between atoms: _532  and  _533
REMARK  218  A    between atoms: _532  and  _535
REMARK  219  A    between atoms: _535  and  _536
REMARK  220  A    between atoms: _539  and  _541
REMARK  221  A    between atoms: _541  and  _542
REMARK  222  A    between atoms: _544  and  _546
REMARK  223  A    between atoms: _546  and  _547
REMARK  224  A    between atoms: _546  and  _549
REMARK  225  A    between atoms: _549  and  _550
REMARK  226  A    between atoms: _550  and  _551
REMARK  227  A    between atoms: _551  and  _552
REMARK  228  A    between atoms: _561  and  _563
REMARK  229  A    between atoms: _563  and  _564
REMARK  230  A    between atoms: _563  and  _566
REMARK  231  A    between atoms: _566  and  _567
REMARK                            x       y       z     vdW  Elec       q    Type
REMARK                         _______ _______ _______ _____ _____    ______ ____
ROOT
ATOM      1  C   GLY A   5     -11.590  24.739 -14.024  0.00  0.00    +0.243 C 
ATOM      2  O   GLY A   5     -12.060  25.374 -13.068  0.00  0.00    -0.273 OA
ATOM      3  N   VAL A   6     -10.794  23.682 -13.900  0.00  0.00    -0.297 N 
ATOM      4  H   VAL A   6     -10.532  23.158 -14.759  0.00  0.00    +0.150 HD
ENDROOT
BRANCH   3   5
ATOM      5  CA  VAL A   6     -10.274  23.224 -12.633  0.00  0.00    +0.149 C 
BRANCH   5   6
ATOM      6  C   VAL A   6      -9.688  24.408 -11.843  0.00  0.00    +0.241 C 
ATOM      7  O   VAL A   6      -9.938  24.529 -10.659  0.00  0.00    -0.273 OA
ATOM      8  N   GLY A   7      -8.888  25.186 -12.553  0.00  0.00    -0.295 N 
ATOM      9  H   GLY A   7      -8.817  25.074 -13.584  0.00  0.00    +0.150 HD
BRANCH   8  10
ATOM     10  CA  GLY A   7      -8.113  26.198 -11.864  0.00  0.00    +0.176 C 
BRANCH  10  11
ATOM     11  C   GLY A   7      -8.746  27.551 -11.741  0.00  0.00    +0.243 C 
ATOM     12  O   GLY A   7      -8.179  28.431 -11.090  0.00  0.00    -0.273 OA
ATOM     13  N   GLY A   8      -9.911  27.773 -12.339  0.00  0.00    -0.295 N 
ATOM     14  H   GLY A   8     -10.383  27.021 -12.881  0.00  0.00    +0.150 HD
BRANCH  13  15
ATOM     15  CA  GLY A   8     -10.518  29.108 -12.216  0.00  0.00    +0.176 C 
BRANCH  15  16
ATOM     16  C   GLY A   8     -11.271  29.483 -13.475  0.00  0.00    +0.243 C 
ATOM     17  N   PHE A   9     -11.878  30.667 -13.504  0.00  0.00    -0.297 N 
ATOM     18  H   PHE A   9     -11.887  31.268 -12.655  0.00  0.00    +0.150 HD
ATOM     19  O   GLY A   8     -11.308  28.690 -14.426  0.00  0.00    -0.273 OA
BRANCH  17  20
ATOM     20  CA  PHE A   9     -12.532  31.122 -14.729  0.00  0.00    +0.153 C 
BRANCH  20  21
ATOM     21  C   PHE A   9     -11.613  31.908 -15.647  0.00  0.00    +0.241 C 
ATOM     22  O   PHE A   9     -10.695  32.628 -15.244  0.00  0.00    -0.273 OA
ATOM     23  N   ILE A  10     -11.855  31.794 -16.954  0.00  0.00    -0.298 N 
ATOM     24  H   ILE A  10     -12.594  31.143 -17.288  0.00  0.00    +0.150 HD
BRANCH  23  25
ATOM     25  CA  ILE A  10     -11.094  32.573 -17.911  0.00  0.00    +0.137 C 
BRANCH  25  26
ATOM     26  C   ILE A  10     -12.008  33.130 -18.997  0.00  0.00    +0.227 C 
ATOM     27  O   ILE A  10     -13.123  32.655 -19.188  0.00  0.00    -0.286 OA
ENDBRANCH  25  26
BRANCH  25  28
ATOM     28  CB  ILE A  10     -10.012  31.764 -18.649  0.00  0.00    +0.026 C 
ATOM     29  CG2 ILE A  10      -9.088  31.064 -17.672  0.00  0.00    +0.002 C 
BRANCH  28  30
ATOM     30  CG1 ILE A  10     -10.628  30.804 -19.664  0.00  0.00    +0.002 C 
ATOM     31  CD1 ILE A  10      -9.685  30.362 -20.749  0.00  0.00    +0.000 C 
ENDBRANCH  28  30
ENDBRANCH  25  28
ENDBRANCH  23  25
ENDBRANCH  20  21
BRANCH  20  32
ATOM     32  CB  PHE A   9     -13.734  31.997 -14.360  0.00  0.00    +0.055 C 
BRANCH  32  33
ATOM     33  CG  PHE A   9     -14.870  31.168 -13.784  0.00  0.00    -0.020 A 
ATOM     34  CD2 PHE A   9     -14.733  30.582 -12.541  0.00  0.00    -0.004 A 
ATOM     35  CE2 PHE A   9     -15.761  29.820 -12.024  0.00  0.00    -0.000 A 
ATOM     36  CZ  PHE A   9     -16.933  29.663 -12.738  0.00  0.00    -0.000 A 
ATOM     37  CE1 PHE A   9     -17.068  30.242 -13.985  0.00  0.00    -0.000 A 
ATOM     38  CD1 PHE A   9     -16.035  30.995 -14.503  0.00  0.00    -0.004 A 
ENDBRANCH  32  33
ENDBRANCH  20  32
ENDBRANCH  17  20
ENDBRANCH  15  16
ENDBRANCH  13  15
ENDBRANCH  10  11
ENDBRANCH   8  10
ENDBRANCH   5   6
BRANCH   5  39
ATOM     39  CB  VAL A   6      -9.042  22.280 -12.616  0.00  0.00    +0.027 C 
ATOM     40  CG2 VAL A   6      -9.355  21.054 -11.777  0.00  0.00    +0.002 C 
ATOM     41  CG1 VAL A   6      -8.564  21.961 -14.012  0.00  0.00    +0.002 C 
ENDBRANCH   5  39
ENDBRANCH   3   5
BRANCH   1  42
ATOM     42  CA  GLY A   5     -11.944  25.167 -15.434  0.00  0.00    +0.176 C 
BRANCH  42  44
ATOM     43  C   GLY A   4     -14.026  26.437 -15.695  0.00  0.00    +0.243 C 
ATOM     44  N   GLY A   5     -12.735  26.371 -15.453  0.00  0.00    -0.295 N 
ATOM     45  H   GLY A   5     -12.242  27.266 -15.258  0.00  0.00    +0.150 HD
ATOM     46  O   GLY A   4     -14.712  25.470 -16.026  0.00  0.00    -0.273 OA
BRANCH  43  47
ATOM     47  CA  GLY A   4     -14.651  27.815 -15.524  0.00  0.00    +0.176 C 
BRANCH  47  49
ATOM     48  C   ILE A   3     -14.904  29.221 -17.460  0.00  0.00    +0.241 C 
ATOM     49  N   GLY A   4     -15.368  28.226 -16.715  0.00  0.00    -0.295 N 
ATOM     50  H   GLY A   4     -16.247  27.740 -16.986  0.00  0.00    +0.150 HD
ATOM     51  O   ILE A   3     -13.893  29.840 -17.141  0.00  0.00    -0.273 OA
BRANCH  48  52
ATOM     52  CA  ILE A   3     -15.699  29.570 -18.715  0.00  0.00    +0.149 C 
BRANCH  52  55
ATOM     53  C   MET A   2     -16.564  31.781 -19.079  0.00  0.00    +0.241 C 
ATOM     54  O   MET A   2     -17.738  31.418 -19.026  0.00  0.00    -0.273 OA
ATOM     55  N   ILE A   3     -15.513  30.991 -19.044  0.00  0.00    -0.297 N 
ATOM     56  H   ILE A   3     -14.564  31.366 -19.246  0.00  0.00    +0.150 HD
BRANCH  53  57
ATOM     57  CA  MET A   2     -16.353  33.299 -19.174  0.00  0.00    +0.149 C 
BRANCH  57  59
ATOM     58  C   LYS A   1     -16.611  34.059 -21.489  0.00  0.00    +0.238 C 
ATOM     59  N   MET A   2     -17.126  33.811 -20.294  0.00  0.00    -0.297 N 
ATOM     60  H   MET A   2     -18.140  33.993 -20.149  0.00  0.00    +0.150 HD
ATOM     61  O   LYS A   1     -15.420  33.986 -21.797  0.00  0.00    -0.274 OA
BRANCH  58  62
ATOM     62  CA  LYS A   1     -17.575  34.488 -22.594  0.00  0.00    +0.145 C 
BRANCH  62  63
ATOM     63  N   LYS A   1     -16.974  35.582 -23.344  0.00  0.00    -0.238 NA
ATOM     64  H   LYS A   1     -15.940  35.613 -23.450  0.00  0.00    +0.142 HD
ENDBRANCH  62  63
BRANCH  62  65
ATOM     65  CB  LYS A   1     -17.880  33.356 -23.568  0.00  0.00    +0.026 C 
BRANCH  65  66
ATOM     66  CG  LYS A   1     -18.216  32.014 -22.975  0.00  0.00    -0.000 C 
BRANCH  66  67
ATOM     67  CD  LYS A   1     -19.627  31.969 -22.421  0.00  0.00    -0.024 C 
BRANCH  67  68
ATOM     68  CE  LYS A   1     -19.998  30.538 -22.026  0.00  0.00    -0.086 C 
BRANCH  68  69
ATOM     69  NZ  LYS A   1     -21.418  30.465 -21.605  0.00  0.00    +0.380 N 
ATOM     70  HZ1 LYS A   1     -21.569  31.091 -20.788  0.00  0.00    -0.089 HD
ATOM     71  HZ2 LYS A   1     -21.650  29.486 -21.341  0.00  0.00    -0.089 HD
ATOM     72  HZ3 LYS A   1     -22.028  30.767 -22.392  0.00  0.00    -0.089 HD
ENDBRANCH  68  69
ENDBRANCH  67  68
ENDBRANCH  66  67
ENDBRANCH  65  66
ENDBRANCH  62  65
ENDBRANCH  58  62
ENDBRANCH  57  59
BRANCH  57  73
ATOM     73  CB  MET A   2     -16.755  33.869 -17.819  0.00  0.00    +0.041 C 
BRANCH  73  74
ATOM     74  CG  MET A   2     -16.588  35.359 -17.619  0.00  0.00    +0.060 C 
BRANCH  74  75
ATOM     75  SD  MET A   2     -14.917  35.958 -17.936  0.00  0.00    -0.139 S 
ATOM     76  CE  MET A   2     -13.959  34.917 -16.843  0.00  0.00    +0.069 C 
ENDBRANCH  74  75
ENDBRANCH  73  74
ENDBRANCH  57  73
ENDBRANCH  53  57
ENDBRANCH  52  55
BRANCH  52  77
ATOM     77  CB  ILE A   3     -15.287  28.628 -19.859  0.00  0.00    +0.027 C 
ATOM     78  CG2 ILE A   3     -16.252  28.798 -21.026  0.00  0.00    +0.002 C 
BRANCH  77  79
ATOM     79  CG1 ILE A   3     -13.831  28.758 -20.300  0.00  0.00    +0.002 C 
ATOM     80  CD1 ILE A   3     -13.484  28.065 -21.595  0.00  0.00    +0.000 C 
ENDBRANCH  77  79
ENDBRANCH  52  77
ENDBRANCH  48  52
ENDBRANCH  47  49
ENDBRANCH  43  47
ENDBRANCH  42  44
ENDBRANCH   1  42
TORSDOF 35
REMARK  Name = ../refined-set-2016/2r3t/2r3t_pocket.pdb
REMARK  231 active torsions:
REMARK  status: ('A' for Active; 'I' for Inactive)
REMARK    1  A    between atoms: _1  and  _3
REMARK    2  A    between atoms: _3  and  _4
REMARK    3  A    between atoms: _3  and  _6
REMARK    4  A    between atoms: _6  and  _7
REMARK    5  A    between atoms: _7  and  _8
REMARK    6  A    between atoms: _8  and  _9
REMARK    7  A    between atoms: _18  and  _20
REMARK    8  A    between atoms: _20  and  _21
REMARK    9  A    between atoms: _20  and  _23
REMARK   10  A    between atoms: _23  and  _24
REMARK   11  A    between atoms: _27  and  _29
REMARK   12  A    between atoms: _29  and  _30
REMARK   13  A    between atoms: _29  and  _32
REMARK   14  A    between atoms: _32  and  _33
REMARK   15  A    between atoms: _36  and  _38
REMARK   16  A    between atoms: _38  and  _39
REMARK   17  A    between atoms: _38  and  _41
REMARK   18  A    between atoms: _41  and  _42
REMARK   19  A    between atoms: _45  and  _47
REMARK   20  A    between atoms: _47  and  _48
REMARK   21  A    between atoms: _47  and  _50
REMARK   22  A    between atoms: _50  and  _51
REMARK   23  A    between atoms: _54  and  _56
REMARK   24  A    between atoms: _56  and  _57
REMARK   25  A    between atoms: _59  and  _61
REMARK   26  A    between atoms: _61  and  _62
REMARK   27  A    between atoms: _65  and  _67
REMARK   28  A    between atoms: _67  and  _68
REMARK   29  A    between atoms: _67  and  _70
REMARK   30  A    between atoms: _70  and  _71
REMARK   31  A    between atoms: _74  and  _76
REMARK   32  A    between atoms: _76  and  _77
REMARK   33  A    between atoms: _76  and  _79
REMARK   34  A    between atoms: _79  and  _80
REMARK   35  A    between atoms: _83  and  _85
REMARK   36  A    between atoms: _85  and  _86
REMARK   37  A    between atoms: _85  and  _88
REMARK   38  A    between atoms: _88  and  _89
REMARK   39  A    between atoms: _92  and  _94
REMARK   40  A    between atoms: _94  and  _95
REMARK   41  A    between atoms: _94  and  _97
REMARK   42  A    between atoms: _100  and  _102
REMARK   43  A    between atoms: _102  and  _103
REMARK   44  A    between atoms: _102  and  _105
REMARK   45  A    between atoms: _105  and  _106
REMARK   46  A    between atoms: _106  and  _107
REMARK   47  A    between atoms: _107  and  _108
REMARK   48  A    between atoms: _108  and  _109
REMARK   49  A    between atoms: _113  and  _115
REMARK   50  A    between atoms: _115  and  _116
REMARK   51  A    between atoms: _115  and  _118
REMARK   52  A    between atoms: _118  and  _119
REMARK   53  A    between atoms: _119  and  _120
REMARK   54  A    between atoms: _122  and  _124
REMARK   55  A    between atoms: _124  and  _125
REMARK   56  A    between atoms: _124  and  _127
REMARK   57  A    between atoms: _127  and  _128
REMARK   58  A    between atoms: _131  and  _133
REMARK   59  A    between atoms: _133  and  _134
REMARK   60  A    between atoms: _136  and  _138
REMARK   61  A    between atoms: _138  and  _139
REMARK   62  A    between atoms: _141  and  _143
REMARK   63  A    between atoms: _143  and  _144
REMARK   64  A    between atoms: _143  and  _146
REMARK   65  A    between atoms: _149  and  _151
REMARK   66  A    between atoms: _151  and  _152
REMARK   67  A    between atoms: _154  and  _156
REMARK   68  A    between atoms: _156  and  _157
REMARK   69  A    between atoms: _159  and  _161
REMARK   70  A    between atoms: _161  and  _162
REMARK   71  A    between atoms: _161  and  _164
REMARK   72  A    between atoms: _164  and  _165
REMARK   73  A    between atoms: _171  and  _173
REMARK   74  A    between atoms: _173  and  _174
REMARK   75  A    between atoms: _173  and  _176
REMARK   76  A    between atoms: _176  and  _177
REMARK   77  A    between atoms: _180  and  _182
REMARK   78  A    between atoms: _182  and  _183
REMARK   79  A    between atoms: _182  and  _185
REMARK   80  A    between atoms: _188  and  _190
REMARK   81  A    between atoms: _190  and  _191
REMARK   82  A    between atoms: _190  and  _193
REMARK   83  A    between atoms: _193  and  _194
REMARK   84  A    between atoms: _197  and  _199
REMARK   85  A    between atoms: _199  and  _200
REMARK   86  A    between atoms: _199  and  _202
REMARK   87  A    between atoms: _202  and  _203
REMARK   88  A    between atoms: _207  and  _208
REMARK   89  A    between atoms: _213  and  _215
REMARK   90  A    between atoms: _215  and  _216
REMARK   91  A    between atoms: _215  and  _218
REMARK   92  A    between atoms: _221  and  _223
REMARK   93  A    between atoms: _223  and  _224
REMARK   94  A    between atoms: _223  and  _226
REMARK   95  A    between atoms: _226  and  _227
REMARK   96  A    between atoms: _232  and  _234
REMARK   97  A    between atoms: _234  and  _235
REMARK   98  A    between atoms: _234  and  _237
REMARK   99  A    between atoms: _237  and  _238
REMARK  100  A    between atoms: _241  and  _243
REMARK  101  A    between atoms: _243  and  _244
REMARK  102  A    between atoms: _243  and  _246
REMARK  103  A    between atoms: _246  and  _247
REMARK  104  A    between atoms: _250  and  _252
REMARK  105  A    between atoms: _252  and  _253
REMARK  106  A    between atoms: _255  and  _257
REMARK  107  A    between atoms: _257  and  _258
REMARK  108  A    between atoms: _257  and  _260
REMARK  109  A    between atoms: _260  and  _261
REMARK  110  A    between atoms: _261  and  _262
REMARK  111  A    between atoms: _262  and  _263
REMARK  112  A    between atoms: _272  and  _274
REMARK  113  A    between atoms: _274  and  _275
REMARK  114  A    between atoms: _274  and  _277
REMARK  115  A    between atoms: _277  and  _278
REMARK  116  A    between atoms: _283  and  _285
REMARK  117  A    between atoms: _285  and  _286
REMARK  118  A    between atoms: _285  and  _288
REMARK  119  A    between atoms: _288  and  _289
REMARK  120  A    between atoms: _289  and  _290
REMARK  121  A    between atoms: _290  and  _291
REMARK  122  A    between atoms: _300  and  _302
REMARK  123  A    between atoms: _302  and  _303
REMARK  124  A    between atoms: _302  and  _305
REMARK  125  A    between atoms: _305  and  _306
REMARK  126  A    between atoms: _309  and  _311
REMARK  127  A    between atoms: _311  and  _312
REMARK  128  A    between atoms: _311  and  _314
REMARK  129  A    between atoms: _314  and  _315
REMARK  130  A    between atoms: _318  and  _320
REMARK  131  A    between atoms: _320  and  _321
REMARK  132  A    between atoms: _320  and  _323
REMARK  133  A    between atoms: _323  and  _324
REMARK  134  A    between atoms: _327  and  _329
REMARK  135  A    between atoms: _329  and  _330
REMARK  136  A    between atoms: _329  and  _332
REMARK  137  A    between atoms: _332  and  _333
REMARK  138  A    between atoms: _336  and  _338
REMARK  139  A    between atoms: _338  and  _339
REMARK  140  A    between atoms: _341  and  _343
REMARK  141  A    between atoms: _343  and  _344
REMARK  142  A    between atoms: _347  and  _349
REMARK  143  A    between atoms: _349  and  _350
REMARK  144  A    between atoms: _349  and  _352
REMARK  145  A    between atoms: _352  and  _353
REMARK  146  A    between atoms: _356  and  _358
REMARK  147  A    between atoms: _358  and  _359
REMARK  148  A    between atoms: _358  and  _361
REMARK  149  A    between atoms: _361  and  _362
REMARK  150  A    between atoms: _365  and  _367
REMARK  151  A    between atoms: _367  and  _368
REMARK  152  A    between atoms: _367  and  _370
REMARK  153  A    between atoms: _370  and  _371
REMARK  154  A    between atoms: _374  and  _376
REMARK  155  A    between atoms: _376  and  _377
REMARK  156  A    between atoms: _376  and  _379
REMARK  157  A    between atoms: _382  and  _384
REMARK  158  A    between atoms: _384  and  _385
REMARK  159  A    between atoms: _384  and  _387
REMARK  160  A    between atoms: _387  and  _388
REMARK  161  A    between atoms: _388  and  _389
REMARK  162  A    between atoms: _389  and  _390
REMARK  163  A    between atoms: _390  and  _391
REMARK  164  A    between atoms: _395  and  _397
REMARK  165  A    between atoms: _397  and  _398
REMARK  166  A    between atoms: _397  and  _400
REMARK  167  A    between atoms: _400  and  _401
REMARK  168  A    between atoms: _401  and  _402
REMARK  169  A    between atoms: _404  and  _406
REMARK  170  A    between atoms: _406  and  _407
REMARK  171  A    between atoms: _406  and  _409
REMARK  172  A    between atoms: _409  and  _410
REMARK  173  A    between atoms: _413  and  _415
REMARK  174  A    between atoms: _415  and  _416
REMARK  175  A    between atoms: _418  and  _420
REMARK  176  A    between atoms: _420  and  _421
REMARK  177  A    between atoms: _423  and  _425
REMARK  178  A    between atoms: _425  and  _426
REMARK  179  A    between atoms: _425  and  _428
REMARK  180  A    between atoms: _431  and  _433
REMARK  181  A    between atoms: _433  and  _434
REMARK  182  A    between atoms: _436  and  _438
REMARK  183  A    between atoms: _438  and  _439
REMARK  184  A    between atoms: _441  and  _443
REMARK  185  A    between atoms: _443  and  _444
REMARK  186  A    between atoms: _443  and  _446
REMARK  187  A    between atoms: _446  and  _447
REMARK  188  A    between atoms: _453  and  _455
REMARK  189  A    between atoms: _455  and  _456
REMARK  190  A    between atoms: _455  and  _458
REMARK  191  A    between atoms: _458  and  _459
REMARK  192  A    between atoms: _462  and  _464
REMARK  193  A    between atoms: _464  and  _465
REMARK  194  A    between atoms: _464  and  _467
REMARK  195  A    between atoms: _470  and  _472
REMARK  196  A    between atoms: _472  and  _473
REMARK  197  A    between atoms: _472  and  _475
REMARK  198  A    between atoms: _475  and  _476
REMARK  199  A    between atoms: _480  and  _481
REMARK  200  A    between atoms: _486  and  _488
REMARK  201  A    between atoms: _488  and  _489
REMARK  202  A    between atoms: _488  and  _491
REMARK  203  A    between atoms: _491  and  _492
REMARK  204  A    between atoms: _496  and  _497
REMARK  205  A    between atoms: _502  and  _504
REMARK  206  A    between atoms: _504  and  _505
REMARK  207  A    between atoms: _504  and  _507
REMARK  208  A    between atoms: _510  and  _512
REMARK  209  A    between atoms: _512  and  _513
REMARK  210  A    between atoms: _512  and  _515
REMARK  211  A    between atoms: _515  and  _516
REMARK  212  A    between atoms: _521  and  _523
REMARK  213  A    between atoms: _523  and  _524
REMARK  214  A    between atoms: _523  and  _526
REMARK  215  A    between atoms: _526  and  _527
REMARK  216  A    between atoms: _530  and  _532
REMARK  217  A    between atoms: _532  and  _533
REMARK  218  A    between atoms: _532  and  _535
REMARK  219  A    between atoms: _535  and  _536
REMARK  220  A    between atoms: _539  and  _541
REMARK  221  A    between atoms: _541  and  _542
REMARK  222  A    between atoms: _544  and  _546
REMARK  223  A    between atoms: _546  and  _547
REMARK  224  A    between atoms: _546  and  _549
REMARK  225  A    between atoms: _549  and  _550
REMARK  226  A    between atoms: _550  and  _551
REMARK  227  A    between atoms: _551  and  _552
REMARK  228  A    between atoms: _561  and  _563
REMARK  229  A    between atoms: _563  and  _564
REMARK  230  A    between atoms: _563  and  _566
REMARK  231  A    between atoms: _566  and  _567
REMARK                            x       y       z     vdW  Elec       q    Type
REMARK                         _______ _______ _______ _____ _____    ______ ____
ROOT
ATOM      1  CA  VAL A   1     -12.514  33.321 -24.294  0.00  0.00    +0.133 C 
ENDROOT
BRANCH   1   2
ATOM      2  CB  VAL A   1     -12.756  31.801 -24.347  0.00  0.00    +0.023 C 
ATOM      3  CG2 VAL A   1     -11.778  31.063 -23.455  0.00  0.00    +0.002 C 
ATOM      4  CG1 VAL A   1     -14.171  31.491 -23.908  0.00  0.00    +0.002 C 
ENDBRANCH   1   2
BRANCH   1   5
ATOM      5  N   VAL A   1     -12.785  33.830 -22.959  0.00  0.00    -0.239 NA
ATOM      6  H   VAL A   1     -13.777  33.937 -22.666  0.00  0.00    +0.142 HD
ENDBRANCH   1   5
BRANCH   1   7
ATOM      7  C   VAL A   1     -13.393  34.042 -25.315  0.00  0.00    +0.224 C 
ATOM      8  O   VAL A   1     -14.235  34.885 -24.966  0.00  0.00    -0.287 OA
ENDBRANCH   1   7
TORSDOF 3
REMARK  Name = ../refined-set-2016/2r3t/2r3t_pocket.pdb
REMARK  231 active torsions:
REMARK  status: ('A' for Active; 'I' for Inactive)
REMARK    1  A    between atoms: _1  and  _3
REMARK    2  A    between atoms: _3  and  _4
REMARK    3  A    between atoms: _3  and  _6
REMARK    4  A    between atoms: _6  and  _7
REMARK    5  A    between atoms: _7  and  _8
REMARK    6  A    between atoms: _8  and  _9
REMARK    7  A    between atoms: _18  and  _20
REMARK    8  A    between atoms: _20  and  _21
REMARK    9  A    between atoms: _20  and  _23
REMARK   10  A    between atoms: _23  and  _24
REMARK   11  A    between atoms: _27  and  _29
REMARK   12  A    between atoms: _29  and  _30
REMARK   13  A    between atoms: _29  and  _32
REMARK   14  A    between atoms: _32  and  _33
REMARK   15  A    between atoms: _36  and  _38
REMARK   16  A    between atoms: _38  and  _39
REMARK   17  A    between atoms: _38  and  _41
REMARK   18  A    between atoms: _41  and  _42
REMARK   19  A    between atoms: _45  and  _47
REMARK   20  A    between atoms: _47  and  _48
REMARK   21  A    between atoms: _47  and  _50
REMARK   22  A    between atoms: _50  and  _51
REMARK   23  A    between atoms: _54  and  _56
REMARK   24  A    between atoms: _56  and  _57
REMARK   25  A    between atoms: _59  and  _61
REMARK   26  A    between atoms: _61  and  _62
REMARK   27  A    between atoms: _65  and  _67
REMARK   28  A    between atoms: _67  and  _68
REMARK   29  A    between atoms: _67  and  _70
REMARK   30  A    between atoms: _70  and  _71
REMARK   31  A    between atoms: _74  and  _76
REMARK   32  A    between atoms: _76  and  _77
REMARK   33  A    between atoms: _76  and  _79
REMARK   34  A    between atoms: _79  and  _80
REMARK   35  A    between atoms: _83  and  _85
REMARK   36  A    between atoms: _85  and  _86
REMARK   37  A    between atoms: _85  and  _88
REMARK   38  A    between atoms: _88  and  _89
REMARK   39  A    between atoms: _92  and  _94
REMARK   40  A    between atoms: _94  and  _95
REMARK   41  A    between atoms: _94  and  _97
REMARK   42  A    between atoms: _100  and  _102
REMARK   43  A    between atoms: _102  and  _103
REMARK   44  A    between atoms: _102  and  _105
REMARK   45  A    between atoms: _105  and  _106
REMARK   46  A    between atoms: _106  and  _107
REMARK   47  A    between atoms: _107  and  _108
REMARK   48  A    between atoms: _108  and  _109
REMARK   49  A    between atoms: _113  and  _115
REMARK   50  A    between atoms: _115  and  _116
REMARK   51  A    between atoms: _115  and  _118
REMARK   52  A    between atoms: _118  and  _119
REMARK   53  A    between atoms: _119  and  _120
REMARK   54  A    between atoms: _122  and  _124
REMARK   55  A    between atoms: _124  and  _125
REMARK   56  A    between atoms: _124  and  _127
REMARK   57  A    between atoms: _127  and  _128
REMARK   58  A    between atoms: _131  and  _133
REMARK   59  A    between atoms: _133  and  _134
REMARK   60  A    between atoms: _136  and  _138
REMARK   61  A    between atoms: _138  and  _139
REMARK   62  A    between atoms: _141  and  _143
REMARK   63  A    between atoms: _143  and  _144
REMARK   64  A    between atoms: _143  and  _146
REMARK   65  A    between atoms: _149  and  _151
REMARK   66  A    between atoms: _151  and  _152
REMARK   67  A    between atoms: _154  and  _156
REMARK   68  A    between atoms: _156  and  _157
REMARK   69  A    between atoms: _159  and  _161
REMARK   70  A    between atoms: _161  and  _162
REMARK   71  A    between atoms: _161  and  _164
REMARK   72  A    between atoms: _164  and  _165
REMARK   73  A    between atoms: _171  and  _173
REMARK   74  A    between atoms: _173  and  _174
REMARK   75  A    between atoms: _173  and  _176
REMARK   76  A    between atoms: _176  and  _177
REMARK   77  A    between atoms: _180  and  _182
REMARK   78  A    between atoms: _182  and  _183
REMARK   79  A    between atoms: _182  and  _185
REMARK   80  A    between atoms: _188  and  _190
REMARK   81  A    between atoms: _190  and  _191
REMARK   82  A    between atoms: _190  and  _193
REMARK   83  A    between atoms: _193  and  _194
REMARK   84  A    between atoms: _197  and  _199
REMARK   85  A    between atoms: _199  and  _200
REMARK   86  A    between atoms: _199  and  _202
REMARK   87  A    between atoms: _202  and  _203
REMARK   88  A    between atoms: _207  and  _208
REMARK   89  A    between atoms: _213  and  _215
REMARK   90  A    between atoms: _215  and  _216
REMARK   91  A    between atoms: _215  and  _218
REMARK   92  A    between atoms: _221  and  _223
REMARK   93  A    between atoms: _223  and  _224
REMARK   94  A    between atoms: _223  and  _226
REMARK   95  A    between atoms: _226  and  _227
REMARK   96  A    between atoms: _232  and  _234
REMARK   97  A    between atoms: _234  and  _235
REMARK   98  A    between atoms: _234  and  _237
REMARK   99  A    between atoms: _237  and  _238
REMARK  100  A    between atoms: _241  and  _243
REMARK  101  A    between atoms: _243  and  _244
REMARK  102  A    between atoms: _243  and  _246
REMARK  103  A    between atoms: _246  and  _247
REMARK  104  A    between atoms: _250  and  _252
REMARK  105  A    between atoms: _252  and  _253
REMARK  106  A    between atoms: _255  and  _257
REMARK  107  A    between atoms: _257  and  _258
REMARK  108  A    between atoms: _257  and  _260
REMARK  109  A    between atoms: _260  and  _261
REMARK  110  A    between atoms: _261  and  _262
REMARK  111  A    between atoms: _262  and  _263
REMARK  112  A    between atoms: _272  and  _274
REMARK  113  A    between atoms: _274  and  _275
REMARK  114  A    between atoms: _274  and  _277
REMARK  115  A    between atoms: _277  and  _278
REMARK  116  A    between atoms: _283  and  _285
REMARK  117  A    between atoms: _285  and  _286
REMARK  118  A    between atoms: _285  and  _288
REMARK  119  A    between atoms: _288  and  _289
REMARK  120  A    between atoms: _289  and  _290
REMARK  121  A    between atoms: _290  and  _291
REMARK  122  A    between atoms: _300  and  _302
REMARK  123  A    between atoms: _302  and  _303
REMARK  124  A    between atoms: _302  and  _305
REMARK  125  A    between atoms: _305  and  _306
REMARK  126  A    between atoms: _309  and  _311
REMARK  127  A    between atoms: _311  and  _312
REMARK  128  A    between atoms: _311  and  _314
REMARK  129  A    between atoms: _314  and  _315
REMARK  130  A    between atoms: _318  and  _320
REMARK  131  A    between atoms: _320  and  _321
REMARK  132  A    between atoms: _320  and  _323
REMARK  133  A    between atoms: _323  and  _324
REMARK  134  A    between atoms: _327  and  _329
REMARK  135  A    between atoms: _329  and  _330
REMARK  136  A    between atoms: _329  and  _332
REMARK  137  A    between atoms: _332  and  _333
REMARK  138  A    between atoms: _336  and  _338
REMARK  139  A    between atoms: _338  and  _339
REMARK  140  A    between atoms: _341  and  _343
REMARK  141  A    between atoms: _343  and  _344
REMARK  142  A    between atoms: _347  and  _349
REMARK  143  A    between atoms: _349  and  _350
REMARK  144  A    between atoms: _349  and  _352
REMARK  145  A    between atoms: _352  and  _353
REMARK  146  A    between atoms: _356  and  _358
REMARK  147  A    between atoms: _358  and  _359
REMARK  148  A    between atoms: _358  and  _361
REMARK  149  A    between atoms: _361  and  _362
REMARK  150  A    between atoms: _365  and  _367
REMARK  151  A    between atoms: _367  and  _368
REMARK  152  A    between atoms: _367  and  _370
REMARK  153  A    between atoms: _370  and  _371
REMARK  154  A    between atoms: _374  and  _376
REMARK  155  A    between atoms: _376  and  _377
REMARK  156  A    between atoms: _376  and  _379
REMARK  157  A    between atoms: _382  and  _384
REMARK  158  A    between atoms: _384  and  _385
REMARK  159  A    between atoms: _384  and  _387
REMARK  160  A    between atoms: _387  and  _388
REMARK  161  A    between atoms: _388  and  _389
REMARK  162  A    between atoms: _389  and  _390
REMARK  163  A    between atoms: _390  and  _391
REMARK  164  A    between atoms: _395  and  _397
REMARK  165  A    between atoms: _397  and  _398
REMARK  166  A    between atoms: _397  and  _400
REMARK  167  A    between atoms: _400  and  _401
REMARK  168  A    between atoms: _401  and  _402
REMARK  169  A    between atoms: _404  and  _406
REMARK  170  A    between atoms: _406  and  _407
REMARK  171  A    between atoms: _406  and  _409
REMARK  172  A    between atoms: _409  and  _410
REMARK  173  A    between atoms: _413  and  _415
REMARK  174  A    between atoms: _415  and  _416
REMARK  175  A    between atoms: _418  and  _420
REMARK  176  A    between atoms: _420  and  _421
REMARK  177  A    between atoms: _423  and  _425
REMARK  178  A    between atoms: _425  and  _426
REMARK  179  A    between atoms: _425  and  _428
REMARK  180  A    between atoms: _431  and  _433
REMARK  181  A    between atoms: _433  and  _434
REMARK  182  A    between atoms: _436  and  _438
REMARK  183  A    between atoms: _438  and  _439
REMARK  184  A    between atoms: _441  and  _443
REMARK  185  A    between atoms: _443  and  _444
REMARK  186  A    between atoms: _443  and  _446
REMARK  187  A    between atoms: _446  and  _447
REMARK  188  A    between atoms: _453  and  _455
REMARK  189  A    between atoms: _455  and  _456
REMARK  190  A    between atoms: _455  and  _458
REMARK  191  A    between atoms: _458  and  _459
REMARK  192  A    between atoms: _462  and  _464
REMARK  193  A    between atoms: _464  and  _465
REMARK  194  A    between atoms: _464  and  _467
REMARK  195  A    between atoms: _470  and  _472
REMARK  196  A    between atoms: _472  and  _473
REMARK  197  A    between atoms: _472  and  _475
REMARK  198  A    between atoms: _475  and  _476
REMARK  199  A    between atoms: _480  and  _481
REMARK  200  A    between atoms: _486  and  _488
REMARK  201  A    between atoms: _488  and  _489
REMARK  202  A    between atoms: _488  and  _491
REMARK  203  A    between atoms: _491  and  _492
REMARK  204  A    between atoms: _496  and  _497
REMARK  205  A    between atoms: _502  and  _504
REMARK  206  A    between atoms: _504  and  _505
REMARK  207  A    between atoms: _504  and  _507
REMARK  208  A    between atoms: _510  and  _512
REMARK  209  A    between atoms: _512  and  _513
REMARK  210  A    between atoms: _512  and  _515
REMARK  211  A    between atoms: _515  and  _516
REMARK  212  A    between atoms: _521  and  _523
REMARK  213  A    between atoms: _523  and  _524
REMARK  214  A    between atoms: _523  and  _526
REMARK  215  A    between atoms: _526  and  _527
REMARK  216  A    between atoms: _530  and  _532
REMARK  217  A    between atoms: _532  and  _533
REMARK  218  A    between atoms: _532  and  _535
REMARK  219  A    between atoms: _535  and  _536
REMARK  220  A    between atoms: _539  and  _541
REMARK  221  A    between atoms: _541  and  _542
REMARK  222  A    between atoms: _544  and  _546
REMARK  223  A    between atoms: _546  and  _547
REMARK  224  A    between atoms: _546  and  _549
REMARK  225  A    between atoms: _549  and  _550
REMARK  226  A    between atoms: _550  and  _551
REMARK  227  A    between atoms: _551  and  _552
REMARK  228  A    between atoms: _561  and  _563
REMARK  229  A    between atoms: _563  and  _564
REMARK  230  A    between atoms: _563  and  _566
REMARK  231  A    between atoms: _566  and  _567
REMARK                            x       y       z     vdW  Elec       q    Type
REMARK                         _______ _______ _______ _____ _____    ______ ____
ROOT
ATOM      1  CA  LEU A   1     -15.345  29.192 -28.214  0.00  0.00    +0.133 C 
ENDROOT
BRANCH   1   2
ATOM      2  N   LEU A   1     -16.206  28.323 -28.989  0.00  0.00    -0.239 NA
ATOM      3  H   LEU A   1     -16.311  27.334 -28.684  0.00  0.00    +0.142 HD
ENDBRANCH   1   2
BRANCH   1   4
ATOM      4  C   LEU A   1     -13.893  28.962 -28.635  0.00  0.00    +0.224 C 
ATOM      5  O   LEU A   1     -13.569  27.837 -29.000  0.00  0.00    -0.287 OA
ENDBRANCH   1   4
BRANCH   1   6
ATOM      6  CB  LEU A   1     -15.483  28.929 -26.720  0.00  0.00    +0.025 C 
BRANCH   6   7
ATOM      7  CG  LEU A   1     -16.912  28.877 -26.164  0.00  0.00    +0.002 C 
ATOM      8  CD2 LEU A   1     -16.871  28.807 -24.645  0.00  0.00    +0.000 C 
ATOM      9  CD1 LEU A   1     -17.688  30.077 -26.645  0.00  0.00    +0.000 C 
ENDBRANCH   6   7
ENDBRANCH   1   6
TORSDOF 4
REMARK  Name = ../refined-set-2016/2r3t/2r3t_pocket.pdb
REMARK  231 active torsions:
REMARK  status: ('A' for Active; 'I' for Inactive)
REMARK    1  A    between atoms: _1  and  _3
REMARK    2  A    between atoms: _3  and  _4
REMARK    3  A    between atoms: _3  and  _6
REMARK    4  A    between atoms: _6  and  _7
REMARK    5  A    between atoms: _7  and  _8
REMARK    6  A    between atoms: _8  and  _9
REMARK    7  A    between atoms: _18  and  _20
REMARK    8  A    between atoms: _20  and  _21
REMARK    9  A    between atoms: _20  and  _23
REMARK   10  A    between atoms: _23  and  _24
REMARK   11  A    between atoms: _27  and  _29
REMARK   12  A    between atoms: _29  and  _30
REMARK   13  A    between atoms: _29  and  _32
REMARK   14  A    between atoms: _32  and  _33
REMARK   15  A    between atoms: _36  and  _38
REMARK   16  A    between atoms: _38  and  _39
REMARK   17  A    between atoms: _38  and  _41
REMARK   18  A    between atoms: _41  and  _42
REMARK   19  A    between atoms: _45  and  _47
REMARK   20  A    between atoms: _47  and  _48
REMARK   21  A    between atoms: _47  and  _50
REMARK   22  A    between atoms: _50  and  _51
REMARK   23  A    between atoms: _54  and  _56
REMARK   24  A    between atoms: _56  and  _57
REMARK   25  A    between atoms: _59  and  _61
REMARK   26  A    between atoms: _61  and  _62
REMARK   27  A    between atoms: _65  and  _67
REMARK   28  A    between atoms: _67  and  _68
REMARK   29  A    between atoms: _67  and  _70
REMARK   30  A    between atoms: _70  and  _71
REMARK   31  A    between atoms: _74  and  _76
REMARK   32  A    between atoms: _76  and  _77
REMARK   33  A    between atoms: _76  and  _79
REMARK   34  A    between atoms: _79  and  _80
REMARK   35  A    between atoms: _83  and  _85
REMARK   36  A    between atoms: _85  and  _86
REMARK   37  A    between atoms: _85  and  _88
REMARK   38  A    between atoms: _88  and  _89
REMARK   39  A    between atoms: _92  and  _94
REMARK   40  A    between atoms: _94  and  _95
REMARK   41  A    between atoms: _94  and  _97
REMARK   42  A    between atoms: _100  and  _102
REMARK   43  A    between atoms: _102  and  _103
REMARK   44  A    between atoms: _102  and  _105
REMARK   45  A    between atoms: _105  and  _106
REMARK   46  A    between atoms: _106  and  _107
REMARK   47  A    between atoms: _107  and  _108
REMARK   48  A    between atoms: _108  and  _109
REMARK   49  A    between atoms: _113  and  _115
REMARK   50  A    between atoms: _115  and  _116
REMARK   51  A    between atoms: _115  and  _118
REMARK   52  A    between atoms: _118  and  _119
REMARK   53  A    between atoms: _119  and  _120
REMARK   54  A    between atoms: _122  and  _124
REMARK   55  A    between atoms: _124  and  _125
REMARK   56  A    between atoms: _124  and  _127
REMARK   57  A    between atoms: _127  and  _128
REMARK   58  A    between atoms: _131  and  _133
REMARK   59  A    between atoms: _133  and  _134
REMARK   60  A    between atoms: _136  and  _138
REMARK   61  A    between atoms: _138  and  _139
REMARK   62  A    between atoms: _141  and  _143
REMARK   63  A    between atoms: _143  and  _144
REMARK   64  A    between atoms: _143  and  _146
REMARK   65  A    between atoms: _149  and  _151
REMARK   66  A    between atoms: _151  and  _152
REMARK   67  A    between atoms: _154  and  _156
REMARK   68  A    between atoms: _156  and  _157
REMARK   69  A    between atoms: _159  and  _161
REMARK   70  A    between atoms: _161  and  _162
REMARK   71  A    between atoms: _161  and  _164
REMARK   72  A    between atoms: _164  and  _165
REMARK   73  A    between atoms: _171  and  _173
REMARK   74  A    between atoms: _173  and  _174
REMARK   75  A    between atoms: _173  and  _176
REMARK   76  A    between atoms: _176  and  _177
REMARK   77  A    between atoms: _180  and  _182
REMARK   78  A    between atoms: _182  and  _183
REMARK   79  A    between atoms: _182  and  _185
REMARK   80  A    between atoms: _188  and  _190
REMARK   81  A    between atoms: _190  and  _191
REMARK   82  A    between atoms: _190  and  _193
REMARK   83  A    between atoms: _193  and  _194
REMARK   84  A    between atoms: _197  and  _199
REMARK   85  A    between atoms: _199  and  _200
REMARK   86  A    between atoms: _199  and  _202
REMARK   87  A    between atoms: _202  and  _203
REMARK   88  A    between atoms: _207  and  _208
REMARK   89  A    between atoms: _213  and  _215
REMARK   90  A    between atoms: _215  and  _216
REMARK   91  A    between atoms: _215  and  _218
REMARK   92  A    between atoms: _221  and  _223
REMARK   93  A    between atoms: _223  and  _224
REMARK   94  A    between atoms: _223  and  _226
REMARK   95  A    between atoms: _226  and  _227
REMARK   96  A    between atoms: _232  and  _234
REMARK   97  A    between atoms: _234  and  _235
REMARK   98  A    between atoms: _234  and  _237
REMARK   99  A    between atoms: _237  and  _238
REMARK  100  A    between atoms: _241  and  _243
REMARK  101  A    between atoms: _243  and  _244
REMARK  102  A    between atoms: _243  and  _246
REMARK  103  A    between atoms: _246  and  _247
REMARK  104  A    between atoms: _250  and  _252
REMARK  105  A    between atoms: _252  and  _253
REMARK  106  A    between atoms: _255  and  _257
REMARK  107  A    between atoms: _257  and  _258
REMARK  108  A    between atoms: _257  and  _260
REMARK  109  A    between atoms: _260  and  _261
REMARK  110  A    between atoms: _261  and  _262
REMARK  111  A    between atoms: _262  and  _263
REMARK  112  A    between atoms: _272  and  _274
REMARK  113  A    between atoms: _274  and  _275
REMARK  114  A    between atoms: _274  and  _277
REMARK  115  A    between atoms: _277  and  _278
REMARK  116  A    between atoms: _283  and  _285
REMARK  117  A    between atoms: _285  and  _286
REMARK  118  A    between atoms: _285  and  _288
REMARK  119  A    between atoms: _288  and  _289
REMARK  120  A    between atoms: _289  and  _290
REMARK  121  A    between atoms: _290  and  _291
REMARK  122  A    between atoms: _300  and  _302
REMARK  123  A    between atoms: _302  and  _303
REMARK  124  A    between atoms: _302  and  _305
REMARK  125  A    between atoms: _305  and  _306
REMARK  126  A    between atoms: _309  and  _311
REMARK  127  A    between atoms: _311  and  _312
REMARK  128  A    between atoms: _311  and  _314
REMARK  129  A    between atoms: _314  and  _315
REMARK  130  A    between atoms: _318  and  _320
REMARK  131  A    between atoms: _320  and  _321
REMARK  132  A    between atoms: _320  and  _323
REMARK  133  A    between atoms: _323  and  _324
REMARK  134  A    between atoms: _327  and  _329
REMARK  135  A    between atoms: _329  and  _330
REMARK  136  A    between atoms: _329  and  _332
REMARK  137  A    between atoms: _332  and  _333
REMARK  138  A    between atoms: _336  and  _338
REMARK  139  A    between atoms: _338  and  _339
REMARK  140  A    between atoms: _341  and  _343
REMARK  141  A    between atoms: _343  and  _344
REMARK  142  A    between atoms: _347  and  _349
REMARK  143  A    between atoms: _349  and  _350
REMARK  144  A    between atoms: _349  and  _352
REMARK  145  A    between atoms: _352  and  _353
REMARK  146  A    between atoms: _356  and  _358
REMARK  147  A    between atoms: _358  and  _359
REMARK  148  A    between atoms: _358  and  _361
REMARK  149  A    between atoms: _361  and  _362
REMARK  150  A    between atoms: _365  and  _367
REMARK  151  A    between atoms: _367  and  _368
REMARK  152  A    between atoms: _367  and  _370
REMARK  153  A    between atoms: _370  and  _371
REMARK  154  A    between atoms: _374  and  _376
REMARK  155  A    between atoms: _376  and  _377
REMARK  156  A    between atoms: _376  and  _379
REMARK  157  A    between atoms: _382  and  _384
REMARK  158  A    between atoms: _384  and  _385
REMARK  159  A    between atoms: _384  and  _387
REMARK  160  A    between atoms: _387  and  _388
REMARK  161  A    between atoms: _388  and  _389
REMARK  162  A    between atoms: _389  and  _390
REMARK  163  A    between atoms: _390  and  _391
REMARK  164  A    between atoms: _395  and  _397
REMARK  165  A    between atoms: _397  and  _398
REMARK  166  A    between atoms: _397  and  _400
REMARK  167  A    between atoms: _400  and  _401
REMARK  168  A    between atoms: _401  and  _402
REMARK  169  A    between atoms: _404  and  _406
REMARK  170  A    between atoms: _406  and  _407
REMARK  171  A    between atoms: _406  and  _409
REMARK  172  A    between atoms: _409  and  _410
REMARK  173  A    between atoms: _413  and  _415
REMARK  174  A    between atoms: _415  and  _416
REMARK  175  A    between atoms: _418  and  _420
REMARK  176  A    between atoms: _420  and  _421
REMARK  177  A    between atoms: _423  and  _425
REMARK  178  A    between atoms: _425  and  _426
REMARK  179  A    between atoms: _425  and  _428
REMARK  180  A    between atoms: _431  and  _433
REMARK  181  A    between atoms: _433  and  _434
REMARK  182  A    between atoms: _436  and  _438
REMARK  183  A    between atoms: _438  and  _439
REMARK  184  A    between atoms: _441  and  _443
REMARK  185  A    between atoms: _443  and  _444
REMARK  186  A    between atoms: _443  and  _446
REMARK  187  A    between atoms: _446  and  _447
REMARK  188  A    between atoms: _453  and  _455
REMARK  189  A    between atoms: _455  and  _456
REMARK  190  A    between atoms: _455  and  _458
REMARK  191  A    between atoms: _458  and  _459
REMARK  192  A    between atoms: _462  and  _464
REMARK  193  A    between atoms: _464  and  _465
REMARK  194  A    between atoms: _464  and  _467
REMARK  195  A    between atoms: _470  and  _472
REMARK  196  A    between atoms: _472  and  _473
REMARK  197  A    between atoms: _472  and  _475
REMARK  198  A    between atoms: _475  and  _476
REMARK  199  A    between atoms: _480  and  _481
REMARK  200  A    between atoms: _486  and  _488
REMARK  201  A    between atoms: _488  and  _489
REMARK  202  A    between atoms: _488  and  _491
REMARK  203  A    between atoms: _491  and  _492
REMARK  204  A    between atoms: _496  and  _497
REMARK  205  A    between atoms: _502  and  _504
REMARK  206  A    between atoms: _504  and  _505
REMARK  207  A    between atoms: _504  and  _507
REMARK  208  A    between atoms: _510  and  _512
REMARK  209  A    between atoms: _512  and  _513
REMARK  210  A    between atoms: _512  and  _515
REMARK  211  A    between atoms: _515  and  _516
REMARK  212  A    between atoms: _521  and  _523
REMARK  213  A    between atoms: _523  and  _524
REMARK  214  A    between atoms: _523  and  _526
REMARK  215  A    between atoms: _526  and  _527
REMARK  216  A    between atoms: _530  and  _532
REMARK  217  A    between atoms: _532  and  _533
REMARK  218  A    between atoms: _532  and  _535
REMARK  219  A    between atoms: _535  and  _536
REMARK  220  A    between atoms: _539  and  _541
REMARK  221  A    between atoms: _541  and  _542
REMARK  222  A    between atoms: _544  and  _546
REMARK  223  A    between atoms: _546  and  _547
REMARK  224  A    between atoms: _546  and  _549
REMARK  225  A    between atoms: _549  and  _550
REMARK  226  A    between atoms: _550  and  _551
REMARK  227  A    between atoms: _551  and  _552
REMARK  228  A    between atoms: _561  and  _563
REMARK  229  A    between atoms: _563  and  _564
REMARK  230  A    between atoms: _563  and  _566
REMARK  231  A    between atoms: _566  and  _567
REMARK                            x       y       z     vdW  Elec       q    Type
REMARK                         _______ _______ _______ _____ _____    ______ ____
ROOT
ATOM      1  CA  ILE A   6     -12.797  20.218 -26.863  0.00  0.00    +0.149 C 
ENDROOT
BRANCH   1   2
ATOM      2  C   ILE A   6     -14.171  20.382 -27.503  0.00  0.00    +0.241 C 
ATOM      3  O   ILE A   6     -14.590  21.519 -27.747  0.00  0.00    -0.273 OA
ATOM      4  N   ILE A   7     -14.808  19.248 -27.763  0.00  0.00    -0.297 N 
ATOM      5  H   ILE A   7     -14.276  18.359 -27.673  0.00  0.00    +0.150 HD
BRANCH   4   6
ATOM      6  CA  ILE A   7     -16.213  19.168 -28.169  0.00  0.00    +0.149 C 
BRANCH   6   7
ATOM      7  C   ILE A   7     -17.038  18.884 -26.915  0.00  0.00    +0.241 C 
ATOM      8  O   ILE A   7     -16.976  17.811 -26.324  0.00  0.00    -0.273 OA
ATOM      9  N   GLY A   8     -17.800  19.895 -26.497  0.00  0.00    -0.295 N 
ATOM     10  H   GLY A   8     -17.847  20.766 -27.063  0.00  0.00    +0.150 HD
BRANCH   9  11
ATOM     11  CA  GLY A   8     -18.564  19.804 -25.269  0.00  0.00    +0.176 C 
BRANCH  11  12
ATOM     12  C   GLY A   8     -20.050  19.645 -25.506  0.00  0.00    +0.243 C 
ATOM     13  N   ARG A   9     -20.847  19.739 -24.447  0.00  0.00    -0.297 N 
ATOM     14  H   ARG A   9     -20.478  20.168 -23.574  0.00  0.00    +0.150 HD
ATOM     15  O   GLY A   8     -20.454  19.410 -26.647  0.00  0.00    -0.273 OA
BRANCH  13  16
ATOM     16  CA  ARG A   9     -22.228  19.258 -24.471  0.00  0.00    +0.149 C 
BRANCH  16  17
ATOM     17  C   ARG A   9     -23.088  19.959 -25.510  0.00  0.00    +0.241 C 
ATOM     18  N   ASN A  10     -22.828  21.214 -25.838  0.00  0.00    -0.298 N 
ATOM     19  H   ASN A  10     -22.011  21.706 -25.422  0.00  0.00    +0.150 HD
ATOM     20  O   ARG A   9     -24.031  19.336 -26.042  0.00  0.00    -0.273 OA
BRANCH  18  21
ATOM     21  CA  ASN A  10     -23.701  21.906 -26.793  0.00  0.00    +0.146 C 
BRANCH  21  22
ATOM     22  C   ASN A  10     -23.719  21.213 -28.152  0.00  0.00    +0.227 C 
ATOM     23  O   ASN A  10     -24.796  21.090 -28.759  0.00  0.00    -0.286 OA
ENDBRANCH  21  22
BRANCH  21  24
ATOM     24  CB  ASN A  10     -23.324  23.376 -26.979  0.00  0.00    +0.112 C 
BRANCH  24  25
ATOM     25  CG  ASN A  10     -21.977  23.595 -27.628  0.00  0.00    +0.222 C 
ATOM     26  OD1 ASN A  10     -20.984  22.990 -27.214  0.00  0.00    -0.275 OA
ATOM     27  ND2 ASN A  10     -21.927  24.447 -28.651  0.00  0.00    -0.329 N 
ATOM     28 HD21 ASN A  10     -22.791  24.934 -28.965  0.00  0.00    +0.145 HD
ATOM     29 HD22 ASN A  10     -21.024  24.625 -29.136  0.00  0.00    +0.145 HD
ENDBRANCH  24  25
ENDBRANCH  21  24
ENDBRANCH  18  21
ENDBRANCH  16  17
BRANCH  16  30
ATOM     30  CB  ARG A   9     -22.842  19.370 -23.074  0.00  0.00    +0.033 C 
BRANCH  30  31
ATOM     31  CG  ARG A   9     -22.411  18.284 -22.091  0.00  0.00    +0.045 C 
BRANCH  31  32
ATOM     32  CD  ARG A   9     -23.247  18.290 -20.806  0.00  0.00    +0.174 C 
BRANCH  32  33
ATOM     33  NE  ARG A   9     -23.287  19.623 -20.206  0.00  0.00    -0.265 N 
ATOM     34  HE  ARG A   9     -22.439  19.900 -19.672  0.00  0.00    +0.259 HD
ATOM     35  CZ  ARG A   9     -24.252  20.522 -20.249  0.00  0.00    +0.342 C 
ATOM     36  NH2 ARG A   9     -24.090  21.710 -19.637  0.00  0.00    -0.292 N 
ATOM     37 HH21 ARG A   9     -23.205  21.918 -19.131  0.00  0.00    +0.255 HD
ATOM     38 HH22 ARG A   9     -24.849  22.420 -19.670  0.00  0.00    +0.255 HD
ATOM     39  NH1 ARG A   9     -25.401  20.300 -20.876  0.00  0.00    -0.292 N 
ATOM     40 HH11 ARG A   9     -26.137  21.034 -20.887  0.00  0.00    +0.255 HD
ATOM     41 HH12 ARG A   9     -25.565  19.392 -21.356  0.00  0.00    +0.255 HD
ENDBRANCH  32  33
ENDBRANCH  31  32
ENDBRANCH  30  31
ENDBRANCH  16  30
ENDBRANCH  13  16
ENDBRANCH  11  12
ENDBRANCH   9  11
ENDBRANCH   6   7
BRANCH   6  42
ATOM     42  CB  ILE A   7     -16.514  18.112 -29.233  0.00  0.00    +0.027 C 
ATOM     43  CG2 ILE A   7     -17.925  18.240 -29.792  0.00  0.00    +0.002 C 
BRANCH  42  44
ATOM     44  CG1 ILE A   7     -15.546  18.125 -30.421  0.00  0.00    +0.002 C 
ATOM     45  CD1 ILE A   7     -15.461  19.495 -31.044  0.00  0.00    +0.000 C 
ENDBRANCH  42  44
ENDBRANCH   6  42
ENDBRANCH   4   6
ENDBRANCH   1   2
BRANCH   1  47
ATOM     46  C   ASN A   5     -10.680  20.251 -28.083  0.00  0.00    +0.241 C 
ATOM     47  N   ILE A   6     -11.754  20.894 -27.640  0.00  0.00    -0.297 N 
ATOM     48  H   ILE A   6     -11.858  21.907 -27.851  0.00  0.00    +0.150 HD
ATOM     49  O   ASN A   5     -10.547  19.026 -27.969  0.00  0.00    -0.273 OA
BRANCH  46  50
ATOM     50  CA  ASN A   5      -9.611  21.097 -28.772  0.00  0.00    +0.158 C 
BRANCH  50  53
ATOM     51  C   VAL A   4      -8.133  20.991 -26.854  0.00  0.00    +0.241 C 
ATOM     52  O   VAL A   4      -9.023  21.436 -26.128  0.00  0.00    -0.273 OA
ATOM     53  N   ASN A   5      -8.310  20.861 -28.160  0.00  0.00    -0.297 N 
ATOM     54  H   ASN A   5      -7.506  20.586 -28.759  0.00  0.00    +0.150 HD
BRANCH  51  55
ATOM     55  CA  VAL A   4      -6.797  20.527 -26.259  0.00  0.00    +0.149 C 
BRANCH  55  58
ATOM     56  C   PRO A   3      -5.386  21.434 -24.446  0.00  0.00    +0.241 C 
ATOM     57  O   PRO A   3      -4.374  20.960 -24.955  0.00  0.00    -0.273 OA
ATOM     58  N   VAL A   4      -6.570  21.230 -25.005  0.00  0.00    -0.297 N 
ATOM     59  H   VAL A   4      -7.404  21.602 -24.508  0.00  0.00    +0.150 HD
BRANCH  56  65
ATOM     60  C   THR A   2      -6.482  24.193 -24.046  0.00  0.00    +0.246 C 
ATOM     61  N   PRO A   3      -6.433  23.253 -23.116  0.00  0.00    -0.272 N 
ATOM     62  CD  PRO A   3      -7.334  23.026 -21.981  0.00  0.00    +0.094 C 
ATOM     63  CG  PRO A   3      -7.026  21.601 -21.628  0.00  0.00    +0.024 C 
ATOM     64  CB  PRO A   3      -5.569  21.411 -21.929  0.00  0.00    +0.031 C 
ATOM     65  CA  PRO A   3      -5.333  22.265 -23.176  0.00  0.00    +0.152 C 
ATOM     66  O   THR A   2      -5.663  24.200 -24.978  0.00  0.00    -0.273 OA
BRANCH  60  67
ATOM     67  CA  THR A   2      -7.554  25.255 -23.966  0.00  0.00    +0.176 C 
BRANCH  67  70
ATOM     68  C   PRO A   1      -6.618  27.453 -23.721  0.00  0.00    +0.239 C 
ATOM     69  O   PRO A   1      -6.601  27.251 -22.512  0.00  0.00    -0.274 OA
ATOM     70  N   THR A   2      -7.051  26.511 -24.547  0.00  0.00    -0.295 N 
ATOM     71  H   THR A   2      -7.036  26.655 -25.577  0.00  0.00    +0.150 HD
BRANCH  68  76
ATOM     72  N   PRO A   1      -7.312  29.551 -24.823  0.00  0.00    -0.210 NA
ATOM     73  CD  PRO A   1      -7.503  30.768 -23.995  0.00  0.00    +0.089 C 
ATOM     74  CG  PRO A   1      -6.381  30.715 -23.003  0.00  0.00    +0.021 C 
ATOM     75  CB  PRO A   1      -5.431  29.652 -23.419  0.00  0.00    +0.028 C 
ATOM     76  CA  PRO A   1      -6.171  28.744 -24.396  0.00  0.00    +0.149 C 
ENDBRANCH  68  76
ENDBRANCH  67  70
BRANCH  67  77
ATOM     77  CB  THR A   2      -8.803  24.764 -24.710  0.00  0.00    +0.137 C 
ATOM     78  CG2 THR A   2      -8.524  24.582 -26.198  0.00  0.00    +0.034 C 
BRANCH  77  79
ATOM     79  OG1 THR A   2      -9.193  23.462 -24.248  0.00  0.00    -0.382 OA
ATOM     80  HG1 THR A   2      -8.454  22.822 -24.406  0.00  0.00    +0.210 HD
ENDBRANCH  77  79
ENDBRANCH  67  77
ENDBRANCH  60  67
ENDBRANCH  56  65
ENDBRANCH  55  58
BRANCH  55  81
ATOM     81  CB  VAL A   4      -6.877  19.014 -26.070  0.00  0.00    +0.027 C 
ATOM     82  CG2 VAL A   4      -8.077  18.671 -25.188  0.00  0.00    +0.002 C 
ATOM     83  CG1 VAL A   4      -7.022  18.265 -27.386  0.00  0.00    +0.002 C 
ENDBRANCH  55  81
ENDBRANCH  51  55
ENDBRANCH  50  53
BRANCH  50  84
ATOM     84  CB  ASN A   5      -9.548  20.764 -30.253  0.00  0.00    +0.114 C 
BRANCH  84  85
ATOM     85  CG  ASN A   5      -8.684  21.688 -31.072  0.00  0.00    +0.222 C 
ATOM     86  OD1 ASN A   5      -8.680  22.890 -30.804  0.00  0.00    -0.275 OA
ATOM     87  ND2 ASN A   5      -7.975  21.167 -32.067  0.00  0.00    -0.329 N 
ATOM     88 HD21 ASN A   5      -8.013  20.144 -32.253  0.00  0.00    +0.145 HD
ATOM     89 HD22 ASN A   5      -7.382  21.782 -32.661  0.00  0.00    +0.145 HD
ENDBRANCH  84  85
ENDBRANCH  50  84
ENDBRANCH  46  50
ENDBRANCH   1  47
BRANCH   1  90
ATOM     90  CB  ILE A   6     -12.808  20.736 -25.411  0.00  0.00    +0.027 C 
ATOM     91  CG2 ILE A   6     -14.116  20.473 -24.687  0.00  0.00    +0.002 C 
BRANCH  90  92
ATOM     92  CG1 ILE A   6     -11.630  20.177 -24.586  0.00  0.00    +0.002 C 
ATOM     93  CD1 ILE A   6     -11.172  21.145 -23.517  0.00  0.00    +0.000 C 
ENDBRANCH  90  92
ENDBRANCH   1  90
TORSDOF 33
REMARK  Name = ../refined-set-2016/2r3t/2r3t_pocket.pdb
REMARK  231 active torsions:
REMARK  status: ('A' for Active; 'I' for Inactive)
REMARK    1  A    between atoms: _1  and  _3
REMARK    2  A    between atoms: _3  and  _4
REMARK    3  A    between atoms: _3  and  _6
REMARK    4  A    between atoms: _6  and  _7
REMARK    5  A    between atoms: _7  and  _8
REMARK    6  A    between atoms: _8  and  _9
REMARK    7  A    between atoms: _18  and  _20
REMARK    8  A    between atoms: _20  and  _21
REMARK    9  A    between atoms: _20  and  _23
REMARK   10  A    between atoms: _23  and  _24
REMARK   11  A    between atoms: _27  and  _29
REMARK   12  A    between atoms: _29  and  _30
REMARK   13  A    between atoms: _29  and  _32
REMARK   14  A    between atoms: _32  and  _33
REMARK   15  A    between atoms: _36  and  _38
REMARK   16  A    between atoms: _38  and  _39
REMARK   17  A    between atoms: _38  and  _41
REMARK   18  A    between atoms: _41  and  _42
REMARK   19  A    between atoms: _45  and  _47
REMARK   20  A    between atoms: _47  and  _48
REMARK   21  A    between atoms: _47  and  _50
REMARK   22  A    between atoms: _50  and  _51
REMARK   23  A    between atoms: _54  and  _56
REMARK   24  A    between atoms: _56  and  _57
REMARK   25  A    between atoms: _59  and  _61
REMARK   26  A    between atoms: _61  and  _62
REMARK   27  A    between atoms: _65  and  _67
REMARK   28  A    between atoms: _67  and  _68
REMARK   29  A    between atoms: _67  and  _70
REMARK   30  A    between atoms: _70  and  _71
REMARK   31  A    between atoms: _74  and  _76
REMARK   32  A    between atoms: _76  and  _77
REMARK   33  A    between atoms: _76  and  _79
REMARK   34  A    between atoms: _79  and  _80
REMARK   35  A    between atoms: _83  and  _85
REMARK   36  A    between atoms: _85  and  _86
REMARK   37  A    between atoms: _85  and  _88
REMARK   38  A    between atoms: _88  and  _89
REMARK   39  A    between atoms: _92  and  _94
REMARK   40  A    between atoms: _94  and  _95
REMARK   41  A    between atoms: _94  and  _97
REMARK   42  A    between atoms: _100  and  _102
REMARK   43  A    between atoms: _102  and  _103
REMARK   44  A    between atoms: _102  and  _105
REMARK   45  A    between atoms: _105  and  _106
REMARK   46  A    between atoms: _106  and  _107
REMARK   47  A    between atoms: _107  and  _108
REMARK   48  A    between atoms: _108  and  _109
REMARK   49  A    between atoms: _113  and  _115
REMARK   50  A    between atoms: _115  and  _116
REMARK   51  A    between atoms: _115  and  _118
REMARK   52  A    between atoms: _118  and  _119
REMARK   53  A    between atoms: _119  and  _120
REMARK   54  A    between atoms: _122  and  _124
REMARK   55  A    between atoms: _124  and  _125
REMARK   56  A    between atoms: _124  and  _127
REMARK   57  A    between atoms: _127  and  _128
REMARK   58  A    between atoms: _131  and  _133
REMARK   59  A    between atoms: _133  and  _134
REMARK   60  A    between atoms: _136  and  _138
REMARK   61  A    between atoms: _138  and  _139
REMARK   62  A    between atoms: _141  and  _143
REMARK   63  A    between atoms: _143  and  _144
REMARK   64  A    between atoms: _143  and  _146
REMARK   65  A    between atoms: _149  and  _151
REMARK   66  A    between atoms: _151  and  _152
REMARK   67  A    between atoms: _154  and  _156
REMARK   68  A    between atoms: _156  and  _157
REMARK   69  A    between atoms: _159  and  _161
REMARK   70  A    between atoms: _161  and  _162
REMARK   71  A    between atoms: _161  and  _164
REMARK   72  A    between atoms: _164  and  _165
REMARK   73  A    between atoms: _171  and  _173
REMARK   74  A    between atoms: _173  and  _174
REMARK   75  A    between atoms: _173  and  _176
REMARK   76  A    between atoms: _176  and  _177
REMARK   77  A    between atoms: _180  and  _182
REMARK   78  A    between atoms: _182  and  _183
REMARK   79  A    between atoms: _182  and  _185
REMARK   80  A    between atoms: _188  and  _190
REMARK   81  A    between atoms: _190  and  _191
REMARK   82  A    between atoms: _190  and  _193
REMARK   83  A    between atoms: _193  and  _194
REMARK   84  A    between atoms: _197  and  _199
REMARK   85  A    between atoms: _199  and  _200
REMARK   86  A    between atoms: _199  and  _202
REMARK   87  A    between atoms: _202  and  _203
REMARK   88  A    between atoms: _207  and  _208
REMARK   89  A    between atoms: _213  and  _215
REMARK   90  A    between atoms: _215  and  _216
REMARK   91  A    between atoms: _215  and  _218
REMARK   92  A    between atoms: _221  and  _223
REMARK   93  A    between atoms: _223  and  _224
REMARK   94  A    between atoms: _223  and  _226
REMARK   95  A    between atoms: _226  and  _227
REMARK   96  A    between atoms: _232  and  _234
REMARK   97  A    between atoms: _234  and  _235
REMARK   98  A    between atoms: _234  and  _237
REMARK   99  A    between atoms: _237  and  _238
REMARK  100  A    between atoms: _241  and  _243
REMARK  101  A    between atoms: _243  and  _244
REMARK  102  A    between atoms: _243  and  _246
REMARK  103  A    between atoms: _246  and  _247
REMARK  104  A    between atoms: _250  and  _252
REMARK  105  A    between atoms: _252  and  _253
REMARK  106  A    between atoms: _255  and  _257
REMARK  107  A    between atoms: _257  and  _258
REMARK  108  A    between atoms: _257  and  _260
REMARK  109  A    between atoms: _260  and  _261
REMARK  110  A    between atoms: _261  and  _262
REMARK  111  A    between atoms: _262  and  _263
REMARK  112  A    between atoms: _272  and  _274
REMARK  113  A    between atoms: _274  and  _275
REMARK  114  A    between atoms: _274  and  _277
REMARK  115  A    between atoms: _277  and  _278
REMARK  116  A    between atoms: _283  and  _285
REMARK  117  A    between atoms: _285  and  _286
REMARK  118  A    between atoms: _285  and  _288
REMARK  119  A    between atoms: _288  and  _289
REMARK  120  A    between atoms: _289  and  _290
REMARK  121  A    between atoms: _290  and  _291
REMARK  122  A    between atoms: _300  and  _302
REMARK  123  A    between atoms: _302  and  _303
REMARK  124  A    between atoms: _302  and  _305
REMARK  125  A    between atoms: _305  and  _306
REMARK  126  A    between atoms: _309  and  _311
REMARK  127  A    between atoms: _311  and  _312
REMARK  128  A    between atoms: _311  and  _314
REMARK  129  A    between atoms: _314  and  _315
REMARK  130  A    between atoms: _318  and  _320
REMARK  131  A    between atoms: _320  and  _321
REMARK  132  A    between atoms: _320  and  _323
REMARK  133  A    between atoms: _323  and  _324
REMARK  134  A    between atoms: _327  and  _329
REMARK  135  A    between atoms: _329  and  _330
REMARK  136  A    between atoms: _329  and  _332
REMARK  137  A    between atoms: _332  and  _333
REMARK  138  A    between atoms: _336  and  _338
REMARK  139  A    between atoms: _338  and  _339
REMARK  140  A    between atoms: _341  and  _343
REMARK  141  A    between atoms: _343  and  _344
REMARK  142  A    between atoms: _347  and  _349
REMARK  143  A    between atoms: _349  and  _350
REMARK  144  A    between atoms: _349  and  _352
REMARK  145  A    between atoms: _352  and  _353
REMARK  146  A    between atoms: _356  and  _358
REMARK  147  A    between atoms: _358  and  _359
REMARK  148  A    between atoms: _358  and  _361
REMARK  149  A    between atoms: _361  and  _362
REMARK  150  A    between atoms: _365  and  _367
REMARK  151  A    between atoms: _367  and  _368
REMARK  152  A    between atoms: _367  and  _370
REMARK  153  A    between atoms: _370  and  _371
REMARK  154  A    between atoms: _374  and  _376
REMARK  155  A    between atoms: _376  and  _377
REMARK  156  A    between atoms: _376  and  _379
REMARK  157  A    between atoms: _382  and  _384
REMARK  158  A    between atoms: _384  and  _385
REMARK  159  A    between atoms: _384  and  _387
REMARK  160  A    between atoms: _387  and  _388
REMARK  161  A    between atoms: _388  and  _389
REMARK  162  A    between atoms: _389  and  _390
REMARK  163  A    between atoms: _390  and  _391
REMARK  164  A    between atoms: _395  and  _397
REMARK  165  A    between atoms: _397  and  _398
REMARK  166  A    between atoms: _397  and  _400
REMARK  167  A    between atoms: _400  and  _401
REMARK  168  A    between atoms: _401  and  _402
REMARK  169  A    between atoms: _404  and  _406
REMARK  170  A    between atoms: _406  and  _407
REMARK  171  A    between atoms: _406  and  _409
REMARK  172  A    between atoms: _409  and  _410
REMARK  173  A    between atoms: _413  and  _415
REMARK  174  A    between atoms: _415  and  _416
REMARK  175  A    between atoms: _418  and  _420
REMARK  176  A    between atoms: _420  and  _421
REMARK  177  A    between atoms: _423  and  _425
REMARK  178  A    between atoms: _425  and  _426
REMARK  179  A    between atoms: _425  and  _428
REMARK  180  A    between atoms: _431  and  _433
REMARK  181  A    between atoms: _433  and  _434
REMARK  182  A    between atoms: _436  and  _438
REMARK  183  A    between atoms: _438  and  _439
REMARK  184  A    between atoms: _441  and  _443
REMARK  185  A    between atoms: _443  and  _444
REMARK  186  A    between atoms: _443  and  _446
REMARK  187  A    between atoms: _446  and  _447
REMARK  188  A    between atoms: _453  and  _455
REMARK  189  A    between atoms: _455  and  _456
REMARK  190  A    between atoms: _455  and  _458
REMARK  191  A    between atoms: _458  and  _459
REMARK  192  A    between atoms: _462  and  _464
REMARK  193  A    between atoms: _464  and  _465
REMARK  194  A    between atoms: _464  and  _467
REMARK  195  A    between atoms: _470  and  _472
REMARK  196  A    between atoms: _472  and  _473
REMARK  197  A    between atoms: _472  and  _475
REMARK  198  A    between atoms: _475  and  _476
REMARK  199  A    between atoms: _480  and  _481
REMARK  200  A    between atoms: _486  and  _488
REMARK  201  A    between atoms: _488  and  _489
REMARK  202  A    between atoms: _488  and  _491
REMARK  203  A    between atoms: _491  and  _492
REMARK  204  A    between atoms: _496  and  _497
REMARK  205  A    between atoms: _502  and  _504
REMARK  206  A    between atoms: _504  and  _505
REMARK  207  A    between atoms: _504  and  _507
REMARK  208  A    between atoms: _510  and  _512
REMARK  209  A    between atoms: _512  and  _513
REMARK  210  A    between atoms: _512  and  _515
REMARK  211  A    between atoms: _515  and  _516
REMARK  212  A    between atoms: _521  and  _523
REMARK  213  A    between atoms: _523  and  _524
REMARK  214  A    between atoms: _523  and  _526
REMARK  215  A    between atoms: _526  and  _527
REMARK  216  A    between atoms: _530  and  _532
REMARK  217  A    between atoms: _532  and  _533
REMARK  218  A    between atoms: _532  and  _535
REMARK  219  A    between atoms: _535  and  _536
REMARK  220  A    between atoms: _539  and  _541
REMARK  221  A    between atoms: _541  and  _542
REMARK  222  A    between atoms: _544  and  _546
REMARK  223  A    between atoms: _546  and  _547
REMARK  224  A    between atoms: _546  and  _549
REMARK  225  A    between atoms: _549  and  _550
REMARK  226  A    between atoms: _550  and  _551
REMARK  227  A    between atoms: _551  and  _552
REMARK  228  A    between atoms: _561  and  _563
REMARK  229  A    between atoms: _563  and  _564
REMARK  230  A    between atoms: _563  and  _566
REMARK  231  A    between atoms: _566  and  _567
REMARK                            x       y       z     vdW  Elec       q    Type
REMARK                         _______ _______ _______ _____ _____    ______ ____
ROOT
ATOM      1  O   HOH     1     -10.338  11.911 -21.643  0.00  0.00    +0.000 OA
ENDROOT
TORSDOF 0
REMARK  Name = ../refined-set-2016/2r3t/2r3t_pocket.pdb
REMARK  231 active torsions:
REMARK  status: ('A' for Active; 'I' for Inactive)
REMARK    1  A    between atoms: _1  and  _3
REMARK    2  A    between atoms: _3  and  _4
REMARK    3  A    between atoms: _3  and  _6
REMARK    4  A    between atoms: _6  and  _7
REMARK    5  A    between atoms: _7  and  _8
REMARK    6  A    between atoms: _8  and  _9
REMARK    7  A    between atoms: _18  and  _20
REMARK    8  A    between atoms: _20  and  _21
REMARK    9  A    between atoms: _20  and  _23
REMARK   10  A    between atoms: _23  and  _24
REMARK   11  A    between atoms: _27  and  _29
REMARK   12  A    between atoms: _29  and  _30
REMARK   13  A    between atoms: _29  and  _32
REMARK   14  A    between atoms: _32  and  _33
REMARK   15  A    between atoms: _36  and  _38
REMARK   16  A    between atoms: _38  and  _39
REMARK   17  A    between atoms: _38  and  _41
REMARK   18  A    between atoms: _41  and  _42
REMARK   19  A    between atoms: _45  and  _47
REMARK   20  A    between atoms: _47  and  _48
REMARK   21  A    between atoms: _47  and  _50
REMARK   22  A    between atoms: _50  and  _51
REMARK   23  A    between atoms: _54  and  _56
REMARK   24  A    between atoms: _56  and  _57
REMARK   25  A    between atoms: _59  and  _61
REMARK   26  A    between atoms: _61  and  _62
REMARK   27  A    between atoms: _65  and  _67
REMARK   28  A    between atoms: _67  and  _68
REMARK   29  A    between atoms: _67  and  _70
REMARK   30  A    between atoms: _70  and  _71
REMARK   31  A    between atoms: _74  and  _76
REMARK   32  A    between atoms: _76  and  _77
REMARK   33  A    between atoms: _76  and  _79
REMARK   34  A    between atoms: _79  and  _80
REMARK   35  A    between atoms: _83  and  _85
REMARK   36  A    between atoms: _85  and  _86
REMARK   37  A    between atoms: _85  and  _88
REMARK   38  A    between atoms: _88  and  _89
REMARK   39  A    between atoms: _92  and  _94
REMARK   40  A    between atoms: _94  and  _95
REMARK   41  A    between atoms: _94  and  _97
REMARK   42  A    between atoms: _100  and  _102
REMARK   43  A    between atoms: _102  and  _103
REMARK   44  A    between atoms: _102  and  _105
REMARK   45  A    between atoms: _105  and  _106
REMARK   46  A    between atoms: _106  and  _107
REMARK   47  A    between atoms: _107  and  _108
REMARK   48  A    between atoms: _108  and  _109
REMARK   49  A    between atoms: _113  and  _115
REMARK   50  A    between atoms: _115  and  _116
REMARK   51  A    between atoms: _115  and  _118
REMARK   52  A    between atoms: _118  and  _119
REMARK   53  A    between atoms: _119  and  _120
REMARK   54  A    between atoms: _122  and  _124
REMARK   55  A    between atoms: _124  and  _125
REMARK   56  A    between atoms: _124  and  _127
REMARK   57  A    between atoms: _127  and  _128
REMARK   58  A    between atoms: _131  and  _133
REMARK   59  A    between atoms: _133  and  _134
REMARK   60  A    between atoms: _136  and  _138
REMARK   61  A    between atoms: _138  and  _139
REMARK   62  A    between atoms: _141  and  _143
REMARK   63  A    between atoms: _143  and  _144
REMARK   64  A    between atoms: _143  and  _146
REMARK   65  A    between atoms: _149  and  _151
REMARK   66  A    between atoms: _151  and  _152
REMARK   67  A    between atoms: _154  and  _156
REMARK   68  A    between atoms: _156  and  _157
REMARK   69  A    between atoms: _159  and  _161
REMARK   70  A    between atoms: _161  and  _162
REMARK   71  A    between atoms: _161  and  _164
REMARK   72  A    between atoms: _164  and  _165
REMARK   73  A    between atoms: _171  and  _173
REMARK   74  A    between atoms: _173  and  _174
REMARK   75  A    between atoms: _173  and  _176
REMARK   76  A    between atoms: _176  and  _177
REMARK   77  A    between atoms: _180  and  _182
REMARK   78  A    between atoms: _182  and  _183
REMARK   79  A    between atoms: _182  and  _185
REMARK   80  A    between atoms: _188  and  _190
REMARK   81  A    between atoms: _190  and  _191
REMARK   82  A    between atoms: _190  and  _193
REMARK   83  A    between atoms: _193  and  _194
REMARK   84  A    between atoms: _197  and  _199
REMARK   85  A    between atoms: _199  and  _200
REMARK   86  A    between atoms: _199  and  _202
REMARK   87  A    between atoms: _202  and  _203
REMARK   88  A    between atoms: _207  and  _208
REMARK   89  A    between atoms: _213  and  _215
REMARK   90  A    between atoms: _215  and  _216
REMARK   91  A    between atoms: _215  and  _218
REMARK   92  A    between atoms: _221  and  _223
REMARK   93  A    between atoms: _223  and  _224
REMARK   94  A    between atoms: _223  and  _226
REMARK   95  A    between atoms: _226  and  _227
REMARK   96  A    between atoms: _232  and  _234
REMARK   97  A    between atoms: _234  and  _235
REMARK   98  A    between atoms: _234  and  _237
REMARK   99  A    between atoms: _237  and  _238
REMARK  100  A    between atoms: _241  and  _243
REMARK  101  A    between atoms: _243  and  _244
REMARK  102  A    between atoms: _243  and  _246
REMARK  103  A    between atoms: _246  and  _247
REMARK  104  A    between atoms: _250  and  _252
REMARK  105  A    between atoms: _252  and  _253
REMARK  106  A    between atoms: _255  and  _257
REMARK  107  A    between atoms: _257  and  _258
REMARK  108  A    between atoms: _257  and  _260
REMARK  109  A    between atoms: _260  and  _261
REMARK  110  A    between atoms: _261  and  _262
REMARK  111  A    between atoms: _262  and  _263
REMARK  112  A    between atoms: _272  and  _274
REMARK  113  A    between atoms: _274  and  _275
REMARK  114  A    between atoms: _274  and  _277
REMARK  115  A    between atoms: _277  and  _278
REMARK  116  A    between atoms: _283  and  _285
REMARK  117  A    between atoms: _285  and  _286
REMARK  118  A    between atoms: _285  and  _288
REMARK  119  A    between atoms: _288  and  _289
REMARK  120  A    between atoms: _289  and  _290
REMARK  121  A    between atoms: _290  and  _291
REMARK  122  A    between atoms: _300  and  _302
REMARK  123  A    between atoms: _302  and  _303
REMARK  124  A    between atoms: _302  and  _305
REMARK  125  A    between atoms: _305  and  _306
REMARK  126  A    between atoms: _309  and  _311
REMARK  127  A    between atoms: _311  and  _312
REMARK  128  A    between atoms: _311  and  _314
REMARK  129  A    between atoms: _314  and  _315
REMARK  130  A    between atoms: _318  and  _320
REMARK  131  A    between atoms: _320  and  _321
REMARK  132  A    between atoms: _320  and  _323
REMARK  133  A    between atoms: _323  and  _324
REMARK  134  A    between atoms: _327  and  _329
REMARK  135  A    between atoms: _329  and  _330
REMARK  136  A    between atoms: _329  and  _332
REMARK  137  A    between atoms: _332  and  _333
REMARK  138  A    between atoms: _336  and  _338
REMARK  139  A    between atoms: _338  and  _339
REMARK  140  A    between atoms: _341  and  _343
REMARK  141  A    between atoms: _343  and  _344
REMARK  142  A    between atoms: _347  and  _349
REMARK  143  A    between atoms: _349  and  _350
REMARK  144  A    between atoms: _349  and  _352
REMARK  145  A    between atoms: _352  and  _353
REMARK  146  A    between atoms: _356  and  _358
REMARK  147  A    between atoms: _358  and  _359
REMARK  148  A    between atoms: _358  and  _361
REMARK  149  A    between atoms: _361  and  _362
REMARK  150  A    between atoms: _365  and  _367
REMARK  151  A    between atoms: _367  and  _368
REMARK  152  A    between atoms: _367  and  _370
REMARK  153  A    between atoms: _370  and  _371
REMARK  154  A    between atoms: _374  and  _376
REMARK  155  A    between atoms: _376  and  _377
REMARK  156  A    between atoms: _376  and  _379
REMARK  157  A    between atoms: _382  and  _384
REMARK  158  A    between atoms: _384  and  _385
REMARK  159  A    between atoms: _384  and  _387
REMARK  160  A    between atoms: _387  and  _388
REMARK  161  A    between atoms: _388  and  _389
REMARK  162  A    between atoms: _389  and  _390
REMARK  163  A    between atoms: _390  and  _391
REMARK  164  A    between atoms: _395  and  _397
REMARK  165  A    between atoms: _397  and  _398
REMARK  166  A    between atoms: _397  and  _400
REMARK  167  A    between atoms: _400  and  _401
REMARK  168  A    between atoms: _401  and  _402
REMARK  169  A    between atoms: _404  and  _406
REMARK  170  A    between atoms: _406  and  _407
REMARK  171  A    between atoms: _406  and  _409
REMARK  172  A    between atoms: _409  and  _410
REMARK  173  A    between atoms: _413  and  _415
REMARK  174  A    between atoms: _415  and  _416
REMARK  175  A    between atoms: _418  and  _420
REMARK  176  A    between atoms: _420  and  _421
REMARK  177  A    between atoms: _423  and  _425
REMARK  178  A    between atoms: _425  and  _426
REMARK  179  A    between atoms: _425  and  _428
REMARK  180  A    between atoms: _431  and  _433
REMARK  181  A    between atoms: _433  and  _434
REMARK  182  A    between atoms: _436  and  _438
REMARK  183  A    between atoms: _438  and  _439
REMARK  184  A    between atoms: _441  and  _443
REMARK  185  A    between atoms: _443  and  _444
REMARK  186  A    between atoms: _443  and  _446
REMARK  187  A    between atoms: _446  and  _447
REMARK  188  A    between atoms: _453  and  _455
REMARK  189  A    between atoms: _455  and  _456
REMARK  190  A    between atoms: _455  and  _458
REMARK  191  A    between atoms: _458  and  _459
REMARK  192  A    between atoms: _462  and  _464
REMARK  193  A    between atoms: _464  and  _465
REMARK  194  A    between atoms: _464  and  _467
REMARK  195  A    between atoms: _470  and  _472
REMARK  196  A    between atoms: _472  and  _473
REMARK  197  A    between atoms: _472  and  _475
REMARK  198  A    between atoms: _475  and  _476
REMARK  199  A    between atoms: _480  and  _481
REMARK  200  A    between atoms: _486  and  _488
REMARK  201  A    between atoms: _488  and  _489
REMARK  202  A    between atoms: _488  and  _491
REMARK  203  A    between atoms: _491  and  _492
REMARK  204  A    between atoms: _496  and  _497
REMARK  205  A    between atoms: _502  and  _504
REMARK  206  A    between atoms: _504  and  _505
REMARK  207  A    between atoms: _504  and  _507
REMARK  208  A    between atoms: _510  and  _512
REMARK  209  A    between atoms: _512  and  _513
REMARK  210  A    between atoms: _512  and  _515
REMARK  211  A    between atoms: _515  and  _516
REMARK  212  A    between atoms: _521  and  _523
REMARK  213  A    between atoms: _523  and  _524
REMARK  214  A    between atoms: _523  and  _526
REMARK  215  A    between atoms: _526  and  _527
REMARK  216  A    between atoms: _530  and  _532
REMARK  217  A    between atoms: _532  and  _533
REMARK  218  A    between atoms: _532  and  _535
REMARK  219  A    between atoms: _535  and  _536
REMARK  220  A    between atoms: _539  and  _541
REMARK  221  A    between atoms: _541  and  _542
REMARK  222  A    between atoms: _544  and  _546
REMARK  223  A    between atoms: _546  and  _547
REMARK  224  A    between atoms: _546  and  _549
REMARK  225  A    between atoms: _549  and  _550
REMARK  226  A    between atoms: _550  and  _551
REMARK  227  A    between atoms: _551  and  _552
REMARK  228  A    between atoms: _561  and  _563
REMARK  229  A    between atoms: _563  and  _564
REMARK  230  A    between atoms: _563  and  _566
REMARK  231  A    between atoms: _566  and  _567
REMARK                            x       y       z     vdW  Elec       q    Type
REMARK                         _______ _______ _______ _____ _____    ______ ____
ROOT
ATOM      1  O   HOH     1      -7.804  14.555 -18.334  0.00  0.00    +0.000 OA
ENDROOT
TORSDOF 0
REMARK  Name = ../refined-set-2016/2r3t/2r3t_pocket.pdb
REMARK  231 active torsions:
REMARK  status: ('A' for Active; 'I' for Inactive)
REMARK    1  A    between atoms: _1  and  _3
REMARK    2  A    between atoms: _3  and  _4
REMARK    3  A    between atoms: _3  and  _6
REMARK    4  A    between atoms: _6  and  _7
REMARK    5  A    between atoms: _7  and  _8
REMARK    6  A    between atoms: _8  and  _9
REMARK    7  A    between atoms: _18  and  _20
REMARK    8  A    between atoms: _20  and  _21
REMARK    9  A    between atoms: _20  and  _23
REMARK   10  A    between atoms: _23  and  _24
REMARK   11  A    between atoms: _27  and  _29
REMARK   12  A    between atoms: _29  and  _30
REMARK   13  A    between atoms: _29  and  _32
REMARK   14  A    between atoms: _32  and  _33
REMARK   15  A    between atoms: _36  and  _38
REMARK   16  A    between atoms: _38  and  _39
REMARK   17  A    between atoms: _38  and  _41
REMARK   18  A    between atoms: _41  and  _42
REMARK   19  A    between atoms: _45  and  _47
REMARK   20  A    between atoms: _47  and  _48
REMARK   21  A    between atoms: _47  and  _50
REMARK   22  A    between atoms: _50  and  _51
REMARK   23  A    between atoms: _54  and  _56
REMARK   24  A    between atoms: _56  and  _57
REMARK   25  A    between atoms: _59  and  _61
REMARK   26  A    between atoms: _61  and  _62
REMARK   27  A    between atoms: _65  and  _67
REMARK   28  A    between atoms: _67  and  _68
REMARK   29  A    between atoms: _67  and  _70
REMARK   30  A    between atoms: _70  and  _71
REMARK   31  A    between atoms: _74  and  _76
REMARK   32  A    between atoms: _76  and  _77
REMARK   33  A    between atoms: _76  and  _79
REMARK   34  A    between atoms: _79  and  _80
REMARK   35  A    between atoms: _83  and  _85
REMARK   36  A    between atoms: _85  and  _86
REMARK   37  A    between atoms: _85  and  _88
REMARK   38  A    between atoms: _88  and  _89
REMARK   39  A    between atoms: _92  and  _94
REMARK   40  A    between atoms: _94  and  _95
REMARK   41  A    between atoms: _94  and  _97
REMARK   42  A    between atoms: _100  and  _102
REMARK   43  A    between atoms: _102  and  _103
REMARK   44  A    between atoms: _102  and  _105
REMARK   45  A    between atoms: _105  and  _106
REMARK   46  A    between atoms: _106  and  _107
REMARK   47  A    between atoms: _107  and  _108
REMARK   48  A    between atoms: _108  and  _109
REMARK   49  A    between atoms: _113  and  _115
REMARK   50  A    between atoms: _115  and  _116
REMARK   51  A    between atoms: _115  and  _118
REMARK   52  A    between atoms: _118  and  _119
REMARK   53  A    between atoms: _119  and  _120
REMARK   54  A    between atoms: _122  and  _124
REMARK   55  A    between atoms: _124  and  _125
REMARK   56  A    between atoms: _124  and  _127
REMARK   57  A    between atoms: _127  and  _128
REMARK   58  A    between atoms: _131  and  _133
REMARK   59  A    between atoms: _133  and  _134
REMARK   60  A    between atoms: _136  and  _138
REMARK   61  A    between atoms: _138  and  _139
REMARK   62  A    between atoms: _141  and  _143
REMARK   63  A    between atoms: _143  and  _144
REMARK   64  A    between atoms: _143  and  _146
REMARK   65  A    between atoms: _149  and  _151
REMARK   66  A    between atoms: _151  and  _152
REMARK   67  A    between atoms: _154  and  _156
REMARK   68  A    between atoms: _156  and  _157
REMARK   69  A    between atoms: _159  and  _161
REMARK   70  A    between atoms: _161  and  _162
REMARK   71  A    between atoms: _161  and  _164
REMARK   72  A    between atoms: _164  and  _165
REMARK   73  A    between atoms: _171  and  _173
REMARK   74  A    between atoms: _173  and  _174
REMARK   75  A    between atoms: _173  and  _176
REMARK   76  A    between atoms: _176  and  _177
REMARK   77  A    between atoms: _180  and  _182
REMARK   78  A    between atoms: _182  and  _183
REMARK   79  A    between atoms: _182  and  _185
REMARK   80  A    between atoms: _188  and  _190
REMARK   81  A    between atoms: _190  and  _191
REMARK   82  A    between atoms: _190  and  _193
REMARK   83  A    between atoms: _193  and  _194
REMARK   84  A    between atoms: _197  and  _199
REMARK   85  A    between atoms: _199  and  _200
REMARK   86  A    between atoms: _199  and  _202
REMARK   87  A    between atoms: _202  and  _203
REMARK   88  A    between atoms: _207  and  _208
REMARK   89  A    between atoms: _213  and  _215
REMARK   90  A    between atoms: _215  and  _216
REMARK   91  A    between atoms: _215  and  _218
REMARK   92  A    between atoms: _221  and  _223
REMARK   93  A    between atoms: _223  and  _224
REMARK   94  A    between atoms: _223  and  _226
REMARK   95  A    between atoms: _226  and  _227
REMARK   96  A    between atoms: _232  and  _234
REMARK   97  A    between atoms: _234  and  _235
REMARK   98  A    between atoms: _234  and  _237
REMARK   99  A    between atoms: _237  and  _238
REMARK  100  A    between atoms: _241  and  _243
REMARK  101  A    between atoms: _243  and  _244
REMARK  102  A    between atoms: _243  and  _246
REMARK  103  A    between atoms: _246  and  _247
REMARK  104  A    between atoms: _250  and  _252
REMARK  105  A    between atoms: _252  and  _253
REMARK  106  A    between atoms: _255  and  _257
REMARK  107  A    between atoms: _257  and  _258
REMARK  108  A    between atoms: _257  and  _260
REMARK  109  A    between atoms: _260  and  _261
REMARK  110  A    between atoms: _261  and  _262
REMARK  111  A    between atoms: _262  and  _263
REMARK  112  A    between atoms: _272  and  _274
REMARK  113  A    between atoms: _274  and  _275
REMARK  114  A    between atoms: _274  and  _277
REMARK  115  A    between atoms: _277  and  _278
REMARK  116  A    between atoms: _283  and  _285
REMARK  117  A    between atoms: _285  and  _286
REMARK  118  A    between atoms: _285  and  _288
REMARK  119  A    between atoms: _288  and  _289
REMARK  120  A    between atoms: _289  and  _290
REMARK  121  A    between atoms: _290  and  _291
REMARK  122  A    between atoms: _300  and  _302
REMARK  123  A    between atoms: _302  and  _303
REMARK  124  A    between atoms: _302  and  _305
REMARK  125  A    between atoms: _305  and  _306
REMARK  126  A    between atoms: _309  and  _311
REMARK  127  A    between atoms: _311  and  _312
REMARK  128  A    between atoms: _311  and  _314
REMARK  129  A    between atoms: _314  and  _315
REMARK  130  A    between atoms: _318  and  _320
REMARK  131  A    between atoms: _320  and  _321
REMARK  132  A    between atoms: _320  and  _323
REMARK  133  A    between atoms: _323  and  _324
REMARK  134  A    between atoms: _327  and  _329
REMARK  135  A    between atoms: _329  and  _330
REMARK  136  A    between atoms: _329  and  _332
REMARK  137  A    between atoms: _332  and  _333
REMARK  138  A    between atoms: _336  and  _338
REMARK  139  A    between atoms: _338  and  _339
REMARK  140  A    between atoms: _341  and  _343
REMARK  141  A    between atoms: _343  and  _344
REMARK  142  A    between atoms: _347  and  _349
REMARK  143  A    between atoms: _349  and  _350
REMARK  144  A    between atoms: _349  and  _352
REMARK  145  A    between atoms: _352  and  _353
REMARK  146  A    between atoms: _356  and  _358
REMARK  147  A    between atoms: _358  and  _359
REMARK  148  A    between atoms: _358  and  _361
REMARK  149  A    between atoms: _361  and  _362
REMARK  150  A    between atoms: _365  and  _367
REMARK  151  A    between atoms: _367  and  _368
REMARK  152  A    between atoms: _367  and  _370
REMARK  153  A    between atoms: _370  and  _371
REMARK  154  A    between atoms: _374  and  _376
REMARK  155  A    between atoms: _376  and  _377
REMARK  156  A    between atoms: _376  and  _379
REMARK  157  A    between atoms: _382  and  _384
REMARK  158  A    between atoms: _384  and  _385
REMARK  159  A    between atoms: _384  and  _387
REMARK  160  A    between atoms: _387  and  _388
REMARK  161  A    between atoms: _388  and  _389
REMARK  162  A    between atoms: _389  and  _390
REMARK  163  A    between atoms: _390  and  _391
REMARK  164  A    between atoms: _395  and  _397
REMARK  165  A    between atoms: _397  and  _398
REMARK  166  A    between atoms: _397  and  _400
REMARK  167  A    between atoms: _400  and  _401
REMARK  168  A    between atoms: _401  and  _402
REMARK  169  A    between atoms: _404  and  _406
REMARK  170  A    between atoms: _406  and  _407
REMARK  171  A    between atoms: _406  and  _409
REMARK  172  A    between atoms: _409  and  _410
REMARK  173  A    between atoms: _413  and  _415
REMARK  174  A    between atoms: _415  and  _416
REMARK  175  A    between atoms: _418  and  _420
REMARK  176  A    between atoms: _420  and  _421
REMARK  177  A    between atoms: _423  and  _425
REMARK  178  A    between atoms: _425  and  _426
REMARK  179  A    between atoms: _425  and  _428
REMARK  180  A    between atoms: _431  and  _433
REMARK  181  A    between atoms: _433  and  _434
REMARK  182  A    between atoms: _436  and  _438
REMARK  183  A    between atoms: _438  and  _439
REMARK  184  A    between atoms: _441  and  _443
REMARK  185  A    between atoms: _443  and  _444
REMARK  186  A    between atoms: _443  and  _446
REMARK  187  A    between atoms: _446  and  _447
REMARK  188  A    between atoms: _453  and  _455
REMARK  189  A    between atoms: _455  and  _456
REMARK  190  A    between atoms: _455  and  _458
REMARK  191  A    between atoms: _458  and  _459
REMARK  192  A    between atoms: _462  and  _464
REMARK  193  A    between atoms: _464  and  _465
REMARK  194  A    between atoms: _464  and  _467
REMARK  195  A    between atoms: _470  and  _472
REMARK  196  A    between atoms: _472  and  _473
REMARK  197  A    between atoms: _472  and  _475
REMARK  198  A    between atoms: _475  and  _476
REMARK  199  A    between atoms: _480  and  _481
REMARK  200  A    between atoms: _486  and  _488
REMARK  201  A    between atoms: _488  and  _489
REMARK  202  A    between atoms: _488  and  _491
REMARK  203  A    between atoms: _491  and  _492
REMARK  204  A    between atoms: _496  and  _497
REMARK  205  A    between atoms: _502  and  _504
REMARK  206  A    between atoms: _504  and  _505
REMARK  207  A    between atoms: _504  and  _507
REMARK  208  A    between atoms: _510  and  _512
REMARK  209  A    between atoms: _512  and  _513
REMARK  210  A    between atoms: _512  and  _515
REMARK  211  A    between atoms: _515  and  _516
REMARK  212  A    between atoms: _521  and  _523
REMARK  213  A    between atoms: _523  and  _524
REMARK  214  A    between atoms: _523  and  _526
REMARK  215  A    between atoms: _526  and  _527
REMARK  216  A    between atoms: _530  and  _532
REMARK  217  A    between atoms: _532  and  _533
REMARK  218  A    between atoms: _532  and  _535
REMARK  219  A    between atoms: _535  and  _536
REMARK  220  A    between atoms: _539  and  _541
REMARK  221  A    between atoms: _541  and  _542
REMARK  222  A    between atoms: _544  and  _546
REMARK  223  A    between atoms: _546  and  _547
REMARK  224  A    between atoms: _546  and  _549
REMARK  225  A    between atoms: _549  and  _550
REMARK  226  A    between atoms: _550  and  _551
REMARK  227  A    between atoms: _551  and  _552
REMARK  228  A    between atoms: _561  and  _563
REMARK  229  A    between atoms: _563  and  _564
REMARK  230  A    between atoms: _563  and  _566
REMARK  231  A    between atoms: _566  and  _567
REMARK                            x       y       z     vdW  Elec       q    Type
REMARK                         _______ _______ _______ _____ _____    ______ ____
ROOT
ATOM      1  O   HOH     1      -7.975   6.982 -17.595  0.00  0.00    +0.000 OA
ENDROOT
TORSDOF 0
REMARK  Name = ../refined-set-2016/2r3t/2r3t_pocket.pdb
REMARK  231 active torsions:
REMARK  status: ('A' for Active; 'I' for Inactive)
REMARK    1  A    between atoms: _1  and  _3
REMARK    2  A    between atoms: _3  and  _4
REMARK    3  A    between atoms: _3  and  _6
REMARK    4  A    between atoms: _6  and  _7
REMARK    5  A    between atoms: _7  and  _8
REMARK    6  A    between atoms: _8  and  _9
REMARK    7  A    between atoms: _18  and  _20
REMARK    8  A    between atoms: _20  and  _21
REMARK    9  A    between atoms: _20  and  _23
REMARK   10  A    between atoms: _23  and  _24
REMARK   11  A    between atoms: _27  and  _29
REMARK   12  A    between atoms: _29  and  _30
REMARK   13  A    between atoms: _29  and  _32
REMARK   14  A    between atoms: _32  and  _33
REMARK   15  A    between atoms: _36  and  _38
REMARK   16  A    between atoms: _38  and  _39
REMARK   17  A    between atoms: _38  and  _41
REMARK   18  A    between atoms: _41  and  _42
REMARK   19  A    between atoms: _45  and  _47
REMARK   20  A    between atoms: _47  and  _48
REMARK   21  A    between atoms: _47  and  _50
REMARK   22  A    between atoms: _50  and  _51
REMARK   23  A    between atoms: _54  and  _56
REMARK   24  A    between atoms: _56  and  _57
REMARK   25  A    between atoms: _59  and  _61
REMARK   26  A    between atoms: _61  and  _62
REMARK   27  A    between atoms: _65  and  _67
REMARK   28  A    between atoms: _67  and  _68
REMARK   29  A    between atoms: _67  and  _70
REMARK   30  A    between atoms: _70  and  _71
REMARK   31  A    between atoms: _74  and  _76
REMARK   32  A    between atoms: _76  and  _77
REMARK   33  A    between atoms: _76  and  _79
REMARK   34  A    between atoms: _79  and  _80
REMARK   35  A    between atoms: _83  and  _85
REMARK   36  A    between atoms: _85  and  _86
REMARK   37  A    between atoms: _85  and  _88
REMARK   38  A    between atoms: _88  and  _89
REMARK   39  A    between atoms: _92  and  _94
REMARK   40  A    between atoms: _94  and  _95
REMARK   41  A    between atoms: _94  and  _97
REMARK   42  A    between atoms: _100  and  _102
REMARK   43  A    between atoms: _102  and  _103
REMARK   44  A    between atoms: _102  and  _105
REMARK   45  A    between atoms: _105  and  _106
REMARK   46  A    between atoms: _106  and  _107
REMARK   47  A    between atoms: _107  and  _108
REMARK   48  A    between atoms: _108  and  _109
REMARK   49  A    between atoms: _113  and  _115
REMARK   50  A    between atoms: _115  and  _116
REMARK   51  A    between atoms: _115  and  _118
REMARK   52  A    between atoms: _118  and  _119
REMARK   53  A    between atoms: _119  and  _120
REMARK   54  A    between atoms: _122  and  _124
REMARK   55  A    between atoms: _124  and  _125
REMARK   56  A    between atoms: _124  and  _127
REMARK   57  A    between atoms: _127  and  _128
REMARK   58  A    between atoms: _131  and  _133
REMARK   59  A    between atoms: _133  and  _134
REMARK   60  A    between atoms: _136  and  _138
REMARK   61  A    between atoms: _138  and  _139
REMARK   62  A    between atoms: _141  and  _143
REMARK   63  A    between atoms: _143  and  _144
REMARK   64  A    between atoms: _143  and  _146
REMARK   65  A    between atoms: _149  and  _151
REMARK   66  A    between atoms: _151  and  _152
REMARK   67  A    between atoms: _154  and  _156
REMARK   68  A    between atoms: _156  and  _157
REMARK   69  A    between atoms: _159  and  _161
REMARK   70  A    between atoms: _161  and  _162
REMARK   71  A    between atoms: _161  and  _164
REMARK   72  A    between atoms: _164  and  _165
REMARK   73  A    between atoms: _171  and  _173
REMARK   74  A    between atoms: _173  and  _174
REMARK   75  A    between atoms: _173  and  _176
REMARK   76  A    between atoms: _176  and  _177
REMARK   77  A    between atoms: _180  and  _182
REMARK   78  A    between atoms: _182  and  _183
REMARK   79  A    between atoms: _182  and  _185
REMARK   80  A    between atoms: _188  and  _190
REMARK   81  A    between atoms: _190  and  _191
REMARK   82  A    between atoms: _190  and  _193
REMARK   83  A    between atoms: _193  and  _194
REMARK   84  A    between atoms: _197  and  _199
REMARK   85  A    between atoms: _199  and  _200
REMARK   86  A    between atoms: _199  and  _202
REMARK   87  A    between atoms: _202  and  _203
REMARK   88  A    between atoms: _207  and  _208
REMARK   89  A    between atoms: _213  and  _215
REMARK   90  A    between atoms: _215  and  _216
REMARK   91  A    between atoms: _215  and  _218
REMARK   92  A    between atoms: _221  and  _223
REMARK   93  A    between atoms: _223  and  _224
REMARK   94  A    between atoms: _223  and  _226
REMARK   95  A    between atoms: _226  and  _227
REMARK   96  A    between atoms: _232  and  _234
REMARK   97  A    between atoms: _234  and  _235
REMARK   98  A    between atoms: _234  and  _237
REMARK   99  A    between atoms: _237  and  _238
REMARK  100  A    between atoms: _241  and  _243
REMARK  101  A    between atoms: _243  and  _244
REMARK  102  A    between atoms: _243  and  _246
REMARK  103  A    between atoms: _246  and  _247
REMARK  104  A    between atoms: _250  and  _252
REMARK  105  A    between atoms: _252  and  _253
REMARK  106  A    between atoms: _255  and  _257
REMARK  107  A    between atoms: _257  and  _258
REMARK  108  A    between atoms: _257  and  _260
REMARK  109  A    between atoms: _260  and  _261
REMARK  110  A    between atoms: _261  and  _262
REMARK  111  A    between atoms: _262  and  _263
REMARK  112  A    between atoms: _272  and  _274
REMARK  113  A    between atoms: _274  and  _275
REMARK  114  A    between atoms: _274  and  _277
REMARK  115  A    between atoms: _277  and  _278
REMARK  116  A    between atoms: _283  and  _285
REMARK  117  A    between atoms: _285  and  _286
REMARK  118  A    between atoms: _285  and  _288
REMARK  119  A    between atoms: _288  and  _289
REMARK  120  A    between atoms: _289  and  _290
REMARK  121  A    between atoms: _290  and  _291
REMARK  122  A    between atoms: _300  and  _302
REMARK  123  A    between atoms: _302  and  _303
REMARK  124  A    between atoms: _302  and  _305
REMARK  125  A    between atoms: _305  and  _306
REMARK  126  A    between atoms: _309  and  _311
REMARK  127  A    between atoms: _311  and  _312
REMARK  128  A    between atoms: _311  and  _314
REMARK  129  A    between atoms: _314  and  _315
REMARK  130  A    between atoms: _318  and  _320
REMARK  131  A    between atoms: _320  and  _321
REMARK  132  A    between atoms: _320  and  _323
REMARK  133  A    between atoms: _323  and  _324
REMARK  134  A    between atoms: _327  and  _329
REMARK  135  A    between atoms: _329  and  _330
REMARK  136  A    between atoms: _329  and  _332
REMARK  137  A    between atoms: _332  and  _333
REMARK  138  A    between atoms: _336  and  _338
REMARK  139  A    between atoms: _338  and  _339
REMARK  140  A    between atoms: _341  and  _343
REMARK  141  A    between atoms: _343  and  _344
REMARK  142  A    between atoms: _347  and  _349
REMARK  143  A    between atoms: _349  and  _350
REMARK  144  A    between atoms: _349  and  _352
REMARK  145  A    between atoms: _352  and  _353
REMARK  146  A    between atoms: _356  and  _358
REMARK  147  A    between atoms: _358  and  _359
REMARK  148  A    between atoms: _358  and  _361
REMARK  149  A    between atoms: _361  and  _362
REMARK  150  A    between atoms: _365  and  _367
REMARK  151  A    between atoms: _367  and  _368
REMARK  152  A    between atoms: _367  and  _370
REMARK  153  A    between atoms: _370  and  _371
REMARK  154  A    between atoms: _374  and  _376
REMARK  155  A    between atoms: _376  and  _377
REMARK  156  A    between atoms: _376  and  _379
REMARK  157  A    between atoms: _382  and  _384
REMARK  158  A    between atoms: _384  and  _385
REMARK  159  A    between atoms: _384  and  _387
REMARK  160  A    between atoms: _387  and  _388
REMARK  161  A    between atoms: _388  and  _389
REMARK  162  A    between atoms: _389  and  _390
REMARK  163  A    between atoms: _390  and  _391
REMARK  164  A    between atoms: _395  and  _397
REMARK  165  A    between atoms: _397  and  _398
REMARK  166  A    between atoms: _397  and  _400
REMARK  167  A    between atoms: _400  and  _401
REMARK  168  A    between atoms: _401  and  _402
REMARK  169  A    between atoms: _404  and  _406
REMARK  170  A    between atoms: _406  and  _407
REMARK  171  A    between atoms: _406  and  _409
REMARK  172  A    between atoms: _409  and  _410
REMARK  173  A    between atoms: _413  and  _415
REMARK  174  A    between atoms: _415  and  _416
REMARK  175  A    between atoms: _418  and  _420
REMARK  176  A    between atoms: _420  and  _421
REMARK  177  A    between atoms: _423  and  _425
REMARK  178  A    between atoms: _425  and  _426
REMARK  179  A    between atoms: _425  and  _428
REMARK  180  A    between atoms: _431  and  _433
REMARK  181  A    between atoms: _433  and  _434
REMARK  182  A    between atoms: _436  and  _438
REMARK  183  A    between atoms: _438  and  _439
REMARK  184  A    between atoms: _441  and  _443
REMARK  185  A    between atoms: _443  and  _444
REMARK  186  A    between atoms: _443  and  _446
REMARK  187  A    between atoms: _446  and  _447
REMARK  188  A    between atoms: _453  and  _455
REMARK  189  A    between atoms: _455  and  _456
REMARK  190  A    between atoms: _455  and  _458
REMARK  191  A    between atoms: _458  and  _459
REMARK  192  A    between atoms: _462  and  _464
REMARK  193  A    between atoms: _464  and  _465
REMARK  194  A    between atoms: _464  and  _467
REMARK  195  A    between atoms: _470  and  _472
REMARK  196  A    between atoms: _472  and  _473
REMARK  197  A    between atoms: _472  and  _475
REMARK  198  A    between atoms: _475  and  _476
REMARK  199  A    between atoms: _480  and  _481
REMARK  200  A    between atoms: _486  and  _488
REMARK  201  A    between atoms: _488  and  _489
REMARK  202  A    between atoms: _488  and  _491
REMARK  203  A    between atoms: _491  and  _492
REMARK  204  A    between atoms: _496  and  _497
REMARK  205  A    between atoms: _502  and  _504
REMARK  206  A    between atoms: _504  and  _505
REMARK  207  A    between atoms: _504  and  _507
REMARK  208  A    between atoms: _510  and  _512
REMARK  209  A    between atoms: _512  and  _513
REMARK  210  A    between atoms: _512  and  _515
REMARK  211  A    between atoms: _515  and  _516
REMARK  212  A    between atoms: _521  and  _523
REMARK  213  A    between atoms: _523  and  _524
REMARK  214  A    between atoms: _523  and  _526
REMARK  215  A    between atoms: _526  and  _527
REMARK  216  A    between atoms: _530  and  _532
REMARK  217  A    between atoms: _532  and  _533
REMARK  218  A    between atoms: _532  and  _535
REMARK  219  A    between atoms: _535  and  _536
REMARK  220  A    between atoms: _539  and  _541
REMARK  221  A    between atoms: _541  and  _542
REMARK  222  A    between atoms: _544  and  _546
REMARK  223  A    between atoms: _546  and  _547
REMARK  224  A    between atoms: _546  and  _549
REMARK  225  A    between atoms: _549  and  _550
REMARK  226  A    between atoms: _550  and  _551
REMARK  227  A    between atoms: _551  and  _552
REMARK  228  A    between atoms: _561  and  _563
REMARK  229  A    between atoms: _563  and  _564
REMARK  230  A    between atoms: _563  and  _566
REMARK  231  A    between atoms: _566  and  _567
REMARK                            x       y       z     vdW  Elec       q    Type
REMARK                         _______ _______ _______ _____ _____    ______ ____
ROOT
ATOM      1  O   HOH     1      -3.891  18.767 -18.201  0.00  0.00    +0.000 OA
ENDROOT
TORSDOF 0
REMARK  Name = ../refined-set-2016/2r3t/2r3t_pocket.pdb
REMARK  231 active torsions:
REMARK  status: ('A' for Active; 'I' for Inactive)
REMARK    1  A    between atoms: _1  and  _3
REMARK    2  A    between atoms: _3  and  _4
REMARK    3  A    between atoms: _3  and  _6
REMARK    4  A    between atoms: _6  and  _7
REMARK    5  A    between atoms: _7  and  _8
REMARK    6  A    between atoms: _8  and  _9
REMARK    7  A    between atoms: _18  and  _20
REMARK    8  A    between atoms: _20  and  _21
REMARK    9  A    between atoms: _20  and  _23
REMARK   10  A    between atoms: _23  and  _24
REMARK   11  A    between atoms: _27  and  _29
REMARK   12  A    between atoms: _29  and  _30
REMARK   13  A    between atoms: _29  and  _32
REMARK   14  A    between atoms: _32  and  _33
REMARK   15  A    between atoms: _36  and  _38
REMARK   16  A    between atoms: _38  and  _39
REMARK   17  A    between atoms: _38  and  _41
REMARK   18  A    between atoms: _41  and  _42
REMARK   19  A    between atoms: _45  and  _47
REMARK   20  A    between atoms: _47  and  _48
REMARK   21  A    between atoms: _47  and  _50
REMARK   22  A    between atoms: _50  and  _51
REMARK   23  A    between atoms: _54  and  _56
REMARK   24  A    between atoms: _56  and  _57
REMARK   25  A    between atoms: _59  and  _61
REMARK   26  A    between atoms: _61  and  _62
REMARK   27  A    between atoms: _65  and  _67
REMARK   28  A    between atoms: _67  and  _68
REMARK   29  A    between atoms: _67  and  _70
REMARK   30  A    between atoms: _70  and  _71
REMARK   31  A    between atoms: _74  and  _76
REMARK   32  A    between atoms: _76  and  _77
REMARK   33  A    between atoms: _76  and  _79
REMARK   34  A    between atoms: _79  and  _80
REMARK   35  A    between atoms: _83  and  _85
REMARK   36  A    between atoms: _85  and  _86
REMARK   37  A    between atoms: _85  and  _88
REMARK   38  A    between atoms: _88  and  _89
REMARK   39  A    between atoms: _92  and  _94
REMARK   40  A    between atoms: _94  and  _95
REMARK   41  A    between atoms: _94  and  _97
REMARK   42  A    between atoms: _100  and  _102
REMARK   43  A    between atoms: _102  and  _103
REMARK   44  A    between atoms: _102  and  _105
REMARK   45  A    between atoms: _105  and  _106
REMARK   46  A    between atoms: _106  and  _107
REMARK   47  A    between atoms: _107  and  _108
REMARK   48  A    between atoms: _108  and  _109
REMARK   49  A    between atoms: _113  and  _115
REMARK   50  A    between atoms: _115  and  _116
REMARK   51  A    between atoms: _115  and  _118
REMARK   52  A    between atoms: _118  and  _119
REMARK   53  A    between atoms: _119  and  _120
REMARK   54  A    between atoms: _122  and  _124
REMARK   55  A    between atoms: _124  and  _125
REMARK   56  A    between atoms: _124  and  _127
REMARK   57  A    between atoms: _127  and  _128
REMARK   58  A    between atoms: _131  and  _133
REMARK   59  A    between atoms: _133  and  _134
REMARK   60  A    between atoms: _136  and  _138
REMARK   61  A    between atoms: _138  and  _139
REMARK   62  A    between atoms: _141  and  _143
REMARK   63  A    between atoms: _143  and  _144
REMARK   64  A    between atoms: _143  and  _146
REMARK   65  A    between atoms: _149  and  _151
REMARK   66  A    between atoms: _151  and  _152
REMARK   67  A    between atoms: _154  and  _156
REMARK   68  A    between atoms: _156  and  _157
REMARK   69  A    between atoms: _159  and  _161
REMARK   70  A    between atoms: _161  and  _162
REMARK   71  A    between atoms: _161  and  _164
REMARK   72  A    between atoms: _164  and  _165
REMARK   73  A    between atoms: _171  and  _173
REMARK   74  A    between atoms: _173  and  _174
REMARK   75  A    between atoms: _173  and  _176
REMARK   76  A    between atoms: _176  and  _177
REMARK   77  A    between atoms: _180  and  _182
REMARK   78  A    between atoms: _182  and  _183
REMARK   79  A    between atoms: _182  and  _185
REMARK   80  A    between atoms: _188  and  _190
REMARK   81  A    between atoms: _190  and  _191
REMARK   82  A    between atoms: _190  and  _193
REMARK   83  A    between atoms: _193  and  _194
REMARK   84  A    between atoms: _197  and  _199
REMARK   85  A    between atoms: _199  and  _200
REMARK   86  A    between atoms: _199  and  _202
REMARK   87  A    between atoms: _202  and  _203
REMARK   88  A    between atoms: _207  and  _208
REMARK   89  A    between atoms: _213  and  _215
REMARK   90  A    between atoms: _215  and  _216
REMARK   91  A    between atoms: _215  and  _218
REMARK   92  A    between atoms: _221  and  _223
REMARK   93  A    between atoms: _223  and  _224
REMARK   94  A    between atoms: _223  and  _226
REMARK   95  A    between atoms: _226  and  _227
REMARK   96  A    between atoms: _232  and  _234
REMARK   97  A    between atoms: _234  and  _235
REMARK   98  A    between atoms: _234  and  _237
REMARK   99  A    between atoms: _237  and  _238
REMARK  100  A    between atoms: _241  and  _243
REMARK  101  A    between atoms: _243  and  _244
REMARK  102  A    between atoms: _243  and  _246
REMARK  103  A    between atoms: _246  and  _247
REMARK  104  A    between atoms: _250  and  _252
REMARK  105  A    between atoms: _252  and  _253
REMARK  106  A    between atoms: _255  and  _257
REMARK  107  A    between atoms: _257  and  _258
REMARK  108  A    between atoms: _257  and  _260
REMARK  109  A    between atoms: _260  and  _261
REMARK  110  A    between atoms: _261  and  _262
REMARK  111  A    between atoms: _262  and  _263
REMARK  112  A    between atoms: _272  and  _274
REMARK  113  A    between atoms: _274  and  _275
REMARK  114  A    between atoms: _274  and  _277
REMARK  115  A    between atoms: _277  and  _278
REMARK  116  A    between atoms: _283  and  _285
REMARK  117  A    between atoms: _285  and  _286
REMARK  118  A    between atoms: _285  and  _288
REMARK  119  A    between atoms: _288  and  _289
REMARK  120  A    between atoms: _289  and  _290
REMARK  121  A    between atoms: _290  and  _291
REMARK  122  A    between atoms: _300  and  _302
REMARK  123  A    between atoms: _302  and  _303
REMARK  124  A    between atoms: _302  and  _305
REMARK  125  A    between atoms: _305  and  _306
REMARK  126  A    between atoms: _309  and  _311
REMARK  127  A    between atoms: _311  and  _312
REMARK  128  A    between atoms: _311  and  _314
REMARK  129  A    between atoms: _314  and  _315
REMARK  130  A    between atoms: _318  and  _320
REMARK  131  A    between atoms: _320  and  _321
REMARK  132  A    between atoms: _320  and  _323
REMARK  133  A    between atoms: _323  and  _324
REMARK  134  A    between atoms: _327  and  _329
REMARK  135  A    between atoms: _329  and  _330
REMARK  136  A    between atoms: _329  and  _332
REMARK  137  A    between atoms: _332  and  _333
REMARK  138  A    between atoms: _336  and  _338
REMARK  139  A    between atoms: _338  and  _339
REMARK  140  A    between atoms: _341  and  _343
REMARK  141  A    between atoms: _343  and  _344
REMARK  142  A    between atoms: _347  and  _349
REMARK  143  A    between atoms: _349  and  _350
REMARK  144  A    between atoms: _349  and  _352
REMARK  145  A    between atoms: _352  and  _353
REMARK  146  A    between atoms: _356  and  _358
REMARK  147  A    between atoms: _358  and  _359
REMARK  148  A    between atoms: _358  and  _361
REMARK  149  A    between atoms: _361  and  _362
REMARK  150  A    between atoms: _365  and  _367
REMARK  151  A    between atoms: _367  and  _368
REMARK  152  A    between atoms: _367  and  _370
REMARK  153  A    between atoms: _370  and  _371
REMARK  154  A    between atoms: _374  and  _376
REMARK  155  A    between atoms: _376  and  _377
REMARK  156  A    between atoms: _376  and  _379
REMARK  157  A    between atoms: _382  and  _384
REMARK  158  A    between atoms: _384  and  _385
REMARK  159  A    between atoms: _384  and  _387
REMARK  160  A    between atoms: _387  and  _388
REMARK  161  A    between atoms: _388  and  _389
REMARK  162  A    between atoms: _389  and  _390
REMARK  163  A    between atoms: _390  and  _391
REMARK  164  A    between atoms: _395  and  _397
REMARK  165  A    between atoms: _397  and  _398
REMARK  166  A    between atoms: _397  and  _400
REMARK  167  A    between atoms: _400  and  _401
REMARK  168  A    between atoms: _401  and  _402
REMARK  169  A    between atoms: _404  and  _406
REMARK  170  A    between atoms: _406  and  _407
REMARK  171  A    between atoms: _406  and  _409
REMARK  172  A    between atoms: _409  and  _410
REMARK  173  A    between atoms: _413  and  _415
REMARK  174  A    between atoms: _415  and  _416
REMARK  175  A    between atoms: _418  and  _420
REMARK  176  A    between atoms: _420  and  _421
REMARK  177  A    between atoms: _423  and  _425
REMARK  178  A    between atoms: _425  and  _426
REMARK  179  A    between atoms: _425  and  _428
REMARK  180  A    between atoms: _431  and  _433
REMARK  181  A    between atoms: _433  and  _434
REMARK  182  A    between atoms: _436  and  _438
REMARK  183  A    between atoms: _438  and  _439
REMARK  184  A    between atoms: _441  and  _443
REMARK  185  A    between atoms: _443  and  _444
REMARK  186  A    between atoms: _443  and  _446
REMARK  187  A    between atoms: _446  and  _447
REMARK  188  A    between atoms: _453  and  _455
REMARK  189  A    between atoms: _455  and  _456
REMARK  190  A    between atoms: _455  and  _458
REMARK  191  A    between atoms: _458  and  _459
REMARK  192  A    between atoms: _462  and  _464
REMARK  193  A    between atoms: _464  and  _465
REMARK  194  A    between atoms: _464  and  _467
REMARK  195  A    between atoms: _470  and  _472
REMARK  196  A    between atoms: _472  and  _473
REMARK  197  A    between atoms: _472  and  _475
REMARK  198  A    between atoms: _475  and  _476
REMARK  199  A    between atoms: _480  and  _481
REMARK  200  A    between atoms: _486  and  _488
REMARK  201  A    between atoms: _488  and  _489
REMARK  202  A    between atoms: _488  and  _491
REMARK  203  A    between atoms: _491  and  _492
REMARK  204  A    between atoms: _496  and  _497
REMARK  205  A    between atoms: _502  and  _504
REMARK  206  A    between atoms: _504  and  _505
REMARK  207  A    between atoms: _504  and  _507
REMARK  208  A    between atoms: _510  and  _512
REMARK  209  A    between atoms: _512  and  _513
REMARK  210  A    between atoms: _512  and  _515
REMARK  211  A    between atoms: _515  and  _516
REMARK  212  A    between atoms: _521  and  _523
REMARK  213  A    between atoms: _523  and  _524
REMARK  214  A    between atoms: _523  and  _526
REMARK  215  A    between atoms: _526  and  _527
REMARK  216  A    between atoms: _530  and  _532
REMARK  217  A    between atoms: _532  and  _533
REMARK  218  A    between atoms: _532  and  _535
REMARK  219  A    between atoms: _535  and  _536
REMARK  220  A    between atoms: _539  and  _541
REMARK  221  A    between atoms: _541  and  _542
REMARK  222  A    between atoms: _544  and  _546
REMARK  223  A    between atoms: _546  and  _547
REMARK  224  A    between atoms: _546  and  _549
REMARK  225  A    between atoms: _549  and  _550
REMARK  226  A    between atoms: _550  and  _551
REMARK  227  A    between atoms: _551  and  _552
REMARK  228  A    between atoms: _561  and  _563
REMARK  229  A    between atoms: _563  and  _564
REMARK  230  A    between atoms: _563  and  _566
REMARK  231  A    between atoms: _566  and  _567
REMARK                            x       y       z     vdW  Elec       q    Type
REMARK                         _______ _______ _______ _____ _____    ______ ____
ROOT
ATOM      1  O   HOH     1      -3.613  12.288 -16.915  0.00  0.00    +0.000 OA
ENDROOT
TORSDOF 0
REMARK  Name = ../refined-set-2016/2r3t/2r3t_pocket.pdb
REMARK  231 active torsions:
REMARK  status: ('A' for Active; 'I' for Inactive)
REMARK    1  A    between atoms: _1  and  _3
REMARK    2  A    between atoms: _3  and  _4
REMARK    3  A    between atoms: _3  and  _6
REMARK    4  A    between atoms: _6  and  _7
REMARK    5  A    between atoms: _7  and  _8
REMARK    6  A    between atoms: _8  and  _9
REMARK    7  A    between atoms: _18  and  _20
REMARK    8  A    between atoms: _20  and  _21
REMARK    9  A    between atoms: _20  and  _23
REMARK   10  A    between atoms: _23  and  _24
REMARK   11  A    between atoms: _27  and  _29
REMARK   12  A    between atoms: _29  and  _30
REMARK   13  A    between atoms: _29  and  _32
REMARK   14  A    between atoms: _32  and  _33
REMARK   15  A    between atoms: _36  and  _38
REMARK   16  A    between atoms: _38  and  _39
REMARK   17  A    between atoms: _38  and  _41
REMARK   18  A    between atoms: _41  and  _42
REMARK   19  A    between atoms: _45  and  _47
REMARK   20  A    between atoms: _47  and  _48
REMARK   21  A    between atoms: _47  and  _50
REMARK   22  A    between atoms: _50  and  _51
REMARK   23  A    between atoms: _54  and  _56
REMARK   24  A    between atoms: _56  and  _57
REMARK   25  A    between atoms: _59  and  _61
REMARK   26  A    between atoms: _61  and  _62
REMARK   27  A    between atoms: _65  and  _67
REMARK   28  A    between atoms: _67  and  _68
REMARK   29  A    between atoms: _67  and  _70
REMARK   30  A    between atoms: _70  and  _71
REMARK   31  A    between atoms: _74  and  _76
REMARK   32  A    between atoms: _76  and  _77
REMARK   33  A    between atoms: _76  and  _79
REMARK   34  A    between atoms: _79  and  _80
REMARK   35  A    between atoms: _83  and  _85
REMARK   36  A    between atoms: _85  and  _86
REMARK   37  A    between atoms: _85  and  _88
REMARK   38  A    between atoms: _88  and  _89
REMARK   39  A    between atoms: _92  and  _94
REMARK   40  A    between atoms: _94  and  _95
REMARK   41  A    between atoms: _94  and  _97
REMARK   42  A    between atoms: _100  and  _102
REMARK   43  A    between atoms: _102  and  _103
REMARK   44  A    between atoms: _102  and  _105
REMARK   45  A    between atoms: _105  and  _106
REMARK   46  A    between atoms: _106  and  _107
REMARK   47  A    between atoms: _107  and  _108
REMARK   48  A    between atoms: _108  and  _109
REMARK   49  A    between atoms: _113  and  _115
REMARK   50  A    between atoms: _115  and  _116
REMARK   51  A    between atoms: _115  and  _118
REMARK   52  A    between atoms: _118  and  _119
REMARK   53  A    between atoms: _119  and  _120
REMARK   54  A    between atoms: _122  and  _124
REMARK   55  A    between atoms: _124  and  _125
REMARK   56  A    between atoms: _124  and  _127
REMARK   57  A    between atoms: _127  and  _128
REMARK   58  A    between atoms: _131  and  _133
REMARK   59  A    between atoms: _133  and  _134
REMARK   60  A    between atoms: _136  and  _138
REMARK   61  A    between atoms: _138  and  _139
REMARK   62  A    between atoms: _141  and  _143
REMARK   63  A    between atoms: _143  and  _144
REMARK   64  A    between atoms: _143  and  _146
REMARK   65  A    between atoms: _149  and  _151
REMARK   66  A    between atoms: _151  and  _152
REMARK   67  A    between atoms: _154  and  _156
REMARK   68  A    between atoms: _156  and  _157
REMARK   69  A    between atoms: _159  and  _161
REMARK   70  A    between atoms: _161  and  _162
REMARK   71  A    between atoms: _161  and  _164
REMARK   72  A    between atoms: _164  and  _165
REMARK   73  A    between atoms: _171  and  _173
REMARK   74  A    between atoms: _173  and  _174
REMARK   75  A    between atoms: _173  and  _176
REMARK   76  A    between atoms: _176  and  _177
REMARK   77  A    between atoms: _180  and  _182
REMARK   78  A    between atoms: _182  and  _183
REMARK   79  A    between atoms: _182  and  _185
REMARK   80  A    between atoms: _188  and  _190
REMARK   81  A    between atoms: _190  and  _191
REMARK   82  A    between atoms: _190  and  _193
REMARK   83  A    between atoms: _193  and  _194
REMARK   84  A    between atoms: _197  and  _199
REMARK   85  A    between atoms: _199  and  _200
REMARK   86  A    between atoms: _199  and  _202
REMARK   87  A    between atoms: _202  and  _203
REMARK   88  A    between atoms: _207  and  _208
REMARK   89  A    between atoms: _213  and  _215
REMARK   90  A    between atoms: _215  and  _216
REMARK   91  A    between atoms: _215  and  _218
REMARK   92  A    between atoms: _221  and  _223
REMARK   93  A    between atoms: _223  and  _224
REMARK   94  A    between atoms: _223  and  _226
REMARK   95  A    between atoms: _226  and  _227
REMARK   96  A    between atoms: _232  and  _234
REMARK   97  A    between atoms: _234  and  _235
REMARK   98  A    between atoms: _234  and  _237
REMARK   99  A    between atoms: _237  and  _238
REMARK  100  A    between atoms: _241  and  _243
REMARK  101  A    between atoms: _243  and  _244
REMARK  102  A    between atoms: _243  and  _246
REMARK  103  A    between atoms: _246  and  _247
REMARK  104  A    between atoms: _250  and  _252
REMARK  105  A    between atoms: _252  and  _253
REMARK  106  A    between atoms: _255  and  _257
REMARK  107  A    between atoms: _257  and  _258
REMARK  108  A    between atoms: _257  and  _260
REMARK  109  A    between atoms: _260  and  _261
REMARK  110  A    between atoms: _261  and  _262
REMARK  111  A    between atoms: _262  and  _263
REMARK  112  A    between atoms: _272  and  _274
REMARK  113  A    between atoms: _274  and  _275
REMARK  114  A    between atoms: _274  and  _277
REMARK  115  A    between atoms: _277  and  _278
REMARK  116  A    between atoms: _283  and  _285
REMARK  117  A    between atoms: _285  and  _286
REMARK  118  A    between atoms: _285  and  _288
REMARK  119  A    between atoms: _288  and  _289
REMARK  120  A    between atoms: _289  and  _290
REMARK  121  A    between atoms: _290  and  _291
REMARK  122  A    between atoms: _300  and  _302
REMARK  123  A    between atoms: _302  and  _303
REMARK  124  A    between atoms: _302  and  _305
REMARK  125  A    between atoms: _305  and  _306
REMARK  126  A    between atoms: _309  and  _311
REMARK  127  A    between atoms: _311  and  _312
REMARK  128  A    between atoms: _311  and  _314
REMARK  129  A    between atoms: _314  and  _315
REMARK  130  A    between atoms: _318  and  _320
REMARK  131  A    between atoms: _320  and  _321
REMARK  132  A    between atoms: _320  and  _323
REMARK  133  A    between atoms: _323  and  _324
REMARK  134  A    between atoms: _327  and  _329
REMARK  135  A    between atoms: _329  and  _330
REMARK  136  A    between atoms: _329  and  _332
REMARK  137  A    between atoms: _332  and  _333
REMARK  138  A    between atoms: _336  and  _338
REMARK  139  A    between atoms: _338  and  _339
REMARK  140  A    between atoms: _341  and  _343
REMARK  141  A    between atoms: _343  and  _344
REMARK  142  A    between atoms: _347  and  _349
REMARK  143  A    between atoms: _349  and  _350
REMARK  144  A    between atoms: _349  and  _352
REMARK  145  A    between atoms: _352  and  _353
REMARK  146  A    between atoms: _356  and  _358
REMARK  147  A    between atoms: _358  and  _359
REMARK  148  A    between atoms: _358  and  _361
REMARK  149  A    between atoms: _361  and  _362
REMARK  150  A    between atoms: _365  and  _367
REMARK  151  A    between atoms: _367  and  _368
REMARK  152  A    between atoms: _367  and  _370
REMARK  153  A    between atoms: _370  and  _371
REMARK  154  A    between atoms: _374  and  _376
REMARK  155  A    between atoms: _376  and  _377
REMARK  156  A    between atoms: _376  and  _379
REMARK  157  A    between atoms: _382  and  _384
REMARK  158  A    between atoms: _384  and  _385
REMARK  159  A    between atoms: _384  and  _387
REMARK  160  A    between atoms: _387  and  _388
REMARK  161  A    between atoms: _388  and  _389
REMARK  162  A    between atoms: _389  and  _390
REMARK  163  A    between atoms: _390  and  _391
REMARK  164  A    between atoms: _395  and  _397
REMARK  165  A    between atoms: _397  and  _398
REMARK  166  A    between atoms: _397  and  _400
REMARK  167  A    between atoms: _400  and  _401
REMARK  168  A    between atoms: _401  and  _402
REMARK  169  A    between atoms: _404  and  _406
REMARK  170  A    between atoms: _406  and  _407
REMARK  171  A    between atoms: _406  and  _409
REMARK  172  A    between atoms: _409  and  _410
REMARK  173  A    between atoms: _413  and  _415
REMARK  174  A    between atoms: _415  and  _416
REMARK  175  A    between atoms: _418  and  _420
REMARK  176  A    between atoms: _420  and  _421
REMARK  177  A    between atoms: _423  and  _425
REMARK  178  A    between atoms: _425  and  _426
REMARK  179  A    between atoms: _425  and  _428
REMARK  180  A    between atoms: _431  and  _433
REMARK  181  A    between atoms: _433  and  _434
REMARK  182  A    between atoms: _436  and  _438
REMARK  183  A    between atoms: _438  and  _439
REMARK  184  A    between atoms: _441  and  _443
REMARK  185  A    between atoms: _443  and  _444
REMARK  186  A    between atoms: _443  and  _446
REMARK  187  A    between atoms: _446  and  _447
REMARK  188  A    between atoms: _453  and  _455
REMARK  189  A    between atoms: _455  and  _456
REMARK  190  A    between atoms: _455  and  _458
REMARK  191  A    between atoms: _458  and  _459
REMARK  192  A    between atoms: _462  and  _464
REMARK  193  A    between atoms: _464  and  _465
REMARK  194  A    between atoms: _464  and  _467
REMARK  195  A    between atoms: _470  and  _472
REMARK  196  A    between atoms: _472  and  _473
REMARK  197  A    between atoms: _472  and  _475
REMARK  198  A    between atoms: _475  and  _476
REMARK  199  A    between atoms: _480  and  _481
REMARK  200  A    between atoms: _486  and  _488
REMARK  201  A    between atoms: _488  and  _489
REMARK  202  A    between atoms: _488  and  _491
REMARK  203  A    between atoms: _491  and  _492
REMARK  204  A    between atoms: _496  and  _497
REMARK  205  A    between atoms: _502  and  _504
REMARK  206  A    between atoms: _504  and  _505
REMARK  207  A    between atoms: _504  and  _507
REMARK  208  A    between atoms: _510  and  _512
REMARK  209  A    between atoms: _512  and  _513
REMARK  210  A    between atoms: _512  and  _515
REMARK  211  A    between atoms: _515  and  _516
REMARK  212  A    between atoms: _521  and  _523
REMARK  213  A    between atoms: _523  and  _524
REMARK  214  A    between atoms: _523  and  _526
REMARK  215  A    between atoms: _526  and  _527
REMARK  216  A    between atoms: _530  and  _532
REMARK  217  A    between atoms: _532  and  _533
REMARK  218  A    between atoms: _532  and  _535
REMARK  219  A    between atoms: _535  and  _536
REMARK  220  A    between atoms: _539  and  _541
REMARK  221  A    between atoms: _541  and  _542
REMARK  222  A    between atoms: _544  and  _546
REMARK  223  A    between atoms: _546  and  _547
REMARK  224  A    between atoms: _546  and  _549
REMARK  225  A    between atoms: _549  and  _550
REMARK  226  A    between atoms: _550  and  _551
REMARK  227  A    between atoms: _551  and  _552
REMARK  228  A    between atoms: _561  and  _563
REMARK  229  A    between atoms: _563  and  _564
REMARK  230  A    between atoms: _563  and  _566
REMARK  231  A    between atoms: _566  and  _567
REMARK                            x       y       z     vdW  Elec       q    Type
REMARK                         _______ _______ _______ _____ _____    ______ ____
ROOT
ATOM      1  O   HOH     1      -4.776  11.717 -13.762  0.00  0.00    +0.000 OA
ENDROOT
TORSDOF 0
REMARK  Name = ../refined-set-2016/2r3t/2r3t_pocket.pdb
REMARK  231 active torsions:
REMARK  status: ('A' for Active; 'I' for Inactive)
REMARK    1  A    between atoms: _1  and  _3
REMARK    2  A    between atoms: _3  and  _4
REMARK    3  A    between atoms: _3  and  _6
REMARK    4  A    between atoms: _6  and  _7
REMARK    5  A    between atoms: _7  and  _8
REMARK    6  A    between atoms: _8  and  _9
REMARK    7  A    between atoms: _18  and  _20
REMARK    8  A    between atoms: _20  and  _21
REMARK    9  A    between atoms: _20  and  _23
REMARK   10  A    between atoms: _23  and  _24
REMARK   11  A    between atoms: _27  and  _29
REMARK   12  A    between atoms: _29  and  _30
REMARK   13  A    between atoms: _29  and  _32
REMARK   14  A    between atoms: _32  and  _33
REMARK   15  A    between atoms: _36  and  _38
REMARK   16  A    between atoms: _38  and  _39
REMARK   17  A    between atoms: _38  and  _41
REMARK   18  A    between atoms: _41  and  _42
REMARK   19  A    between atoms: _45  and  _47
REMARK   20  A    between atoms: _47  and  _48
REMARK   21  A    between atoms: _47  and  _50
REMARK   22  A    between atoms: _50  and  _51
REMARK   23  A    between atoms: _54  and  _56
REMARK   24  A    between atoms: _56  and  _57
REMARK   25  A    between atoms: _59  and  _61
REMARK   26  A    between atoms: _61  and  _62
REMARK   27  A    between atoms: _65  and  _67
REMARK   28  A    between atoms: _67  and  _68
REMARK   29  A    between atoms: _67  and  _70
REMARK   30  A    between atoms: _70  and  _71
REMARK   31  A    between atoms: _74  and  _76
REMARK   32  A    between atoms: _76  and  _77
REMARK   33  A    between atoms: _76  and  _79
REMARK   34  A    between atoms: _79  and  _80
REMARK   35  A    between atoms: _83  and  _85
REMARK   36  A    between atoms: _85  and  _86
REMARK   37  A    between atoms: _85  and  _88
REMARK   38  A    between atoms: _88  and  _89
REMARK   39  A    between atoms: _92  and  _94
REMARK   40  A    between atoms: _94  and  _95
REMARK   41  A    between atoms: _94  and  _97
REMARK   42  A    between atoms: _100  and  _102
REMARK   43  A    between atoms: _102  and  _103
REMARK   44  A    between atoms: _102  and  _105
REMARK   45  A    between atoms: _105  and  _106
REMARK   46  A    between atoms: _106  and  _107
REMARK   47  A    between atoms: _107  and  _108
REMARK   48  A    between atoms: _108  and  _109
REMARK   49  A    between atoms: _113  and  _115
REMARK   50  A    between atoms: _115  and  _116
REMARK   51  A    between atoms: _115  and  _118
REMARK   52  A    between atoms: _118  and  _119
REMARK   53  A    between atoms: _119  and  _120
REMARK   54  A    between atoms: _122  and  _124
REMARK   55  A    between atoms: _124  and  _125
REMARK   56  A    between atoms: _124  and  _127
REMARK   57  A    between atoms: _127  and  _128
REMARK   58  A    between atoms: _131  and  _133
REMARK   59  A    between atoms: _133  and  _134
REMARK   60  A    between atoms: _136  and  _138
REMARK   61  A    between atoms: _138  and  _139
REMARK   62  A    between atoms: _141  and  _143
REMARK   63  A    between atoms: _143  and  _144
REMARK   64  A    between atoms: _143  and  _146
REMARK   65  A    between atoms: _149  and  _151
REMARK   66  A    between atoms: _151  and  _152
REMARK   67  A    between atoms: _154  and  _156
REMARK   68  A    between atoms: _156  and  _157
REMARK   69  A    between atoms: _159  and  _161
REMARK   70  A    between atoms: _161  and  _162
REMARK   71  A    between atoms: _161  and  _164
REMARK   72  A    between atoms: _164  and  _165
REMARK   73  A    between atoms: _171  and  _173
REMARK   74  A    between atoms: _173  and  _174
REMARK   75  A    between atoms: _173  and  _176
REMARK   76  A    between atoms: _176  and  _177
REMARK   77  A    between atoms: _180  and  _182
REMARK   78  A    between atoms: _182  and  _183
REMARK   79  A    between atoms: _182  and  _185
REMARK   80  A    between atoms: _188  and  _190
REMARK   81  A    between atoms: _190  and  _191
REMARK   82  A    between atoms: _190  and  _193
REMARK   83  A    between atoms: _193  and  _194
REMARK   84  A    between atoms: _197  and  _199
REMARK   85  A    between atoms: _199  and  _200
REMARK   86  A    between atoms: _199  and  _202
REMARK   87  A    between atoms: _202  and  _203
REMARK   88  A    between atoms: _207  and  _208
REMARK   89  A    between atoms: _213  and  _215
REMARK   90  A    between atoms: _215  and  _216
REMARK   91  A    between atoms: _215  and  _218
REMARK   92  A    between atoms: _221  and  _223
REMARK   93  A    between atoms: _223  and  _224
REMARK   94  A    between atoms: _223  and  _226
REMARK   95  A    between atoms: _226  and  _227
REMARK   96  A    between atoms: _232  and  _234
REMARK   97  A    between atoms: _234  and  _235
REMARK   98  A    between atoms: _234  and  _237
REMARK   99  A    between atoms: _237  and  _238
REMARK  100  A    between atoms: _241  and  _243
REMARK  101  A    between atoms: _243  and  _244
REMARK  102  A    between atoms: _243  and  _246
REMARK  103  A    between atoms: _246  and  _247
REMARK  104  A    between atoms: _250  and  _252
REMARK  105  A    between atoms: _252  and  _253
REMARK  106  A    between atoms: _255  and  _257
REMARK  107  A    between atoms: _257  and  _258
REMARK  108  A    between atoms: _257  and  _260
REMARK  109  A    between atoms: _260  and  _261
REMARK  110  A    between atoms: _261  and  _262
REMARK  111  A    between atoms: _262  and  _263
REMARK  112  A    between atoms: _272  and  _274
REMARK  113  A    between atoms: _274  and  _275
REMARK  114  A    between atoms: _274  and  _277
REMARK  115  A    between atoms: _277  and  _278
REMARK  116  A    between atoms: _283  and  _285
REMARK  117  A    between atoms: _285  and  _286
REMARK  118  A    between atoms: _285  and  _288
REMARK  119  A    between atoms: _288  and  _289
REMARK  120  A    between atoms: _289  and  _290
REMARK  121  A    between atoms: _290  and  _291
REMARK  122  A    between atoms: _300  and  _302
REMARK  123  A    between atoms: _302  and  _303
REMARK  124  A    between atoms: _302  and  _305
REMARK  125  A    between atoms: _305  and  _306
REMARK  126  A    between atoms: _309  and  _311
REMARK  127  A    between atoms: _311  and  _312
REMARK  128  A    between atoms: _311  and  _314
REMARK  129  A    between atoms: _314  and  _315
REMARK  130  A    between atoms: _318  and  _320
REMARK  131  A    between atoms: _320  and  _321
REMARK  132  A    between atoms: _320  and  _323
REMARK  133  A    between atoms: _323  and  _324
REMARK  134  A    between atoms: _327  and  _329
REMARK  135  A    between atoms: _329  and  _330
REMARK  136  A    between atoms: _329  and  _332
REMARK  137  A    between atoms: _332  and  _333
REMARK  138  A    between atoms: _336  and  _338
REMARK  139  A    between atoms: _338  and  _339
REMARK  140  A    between atoms: _341  and  _343
REMARK  141  A    between atoms: _343  and  _344
REMARK  142  A    between atoms: _347  and  _349
REMARK  143  A    between atoms: _349  and  _350
REMARK  144  A    between atoms: _349  and  _352
REMARK  145  A    between atoms: _352  and  _353
REMARK  146  A    between atoms: _356  and  _358
REMARK  147  A    between atoms: _358  and  _359
REMARK  148  A    between atoms: _358  and  _361
REMARK  149  A    between atoms: _361  and  _362
REMARK  150  A    between atoms: _365  and  _367
REMARK  151  A    between atoms: _367  and  _368
REMARK  152  A    between atoms: _367  and  _370
REMARK  153  A    between atoms: _370  and  _371
REMARK  154  A    between atoms: _374  and  _376
REMARK  155  A    between atoms: _376  and  _377
REMARK  156  A    between atoms: _376  and  _379
REMARK  157  A    between atoms: _382  and  _384
REMARK  158  A    between atoms: _384  and  _385
REMARK  159  A    between atoms: _384  and  _387
REMARK  160  A    between atoms: _387  and  _388
REMARK  161  A    between atoms: _388  and  _389
REMARK  162  A    between atoms: _389  and  _390
REMARK  163  A    between atoms: _390  and  _391
REMARK  164  A    between atoms: _395  and  _397
REMARK  165  A    between atoms: _397  and  _398
REMARK  166  A    between atoms: _397  and  _400
REMARK  167  A    between atoms: _400  and  _401
REMARK  168  A    between atoms: _401  and  _402
REMARK  169  A    between atoms: _404  and  _406
REMARK  170  A    between atoms: _406  and  _407
REMARK  171  A    between atoms: _406  and  _409
REMARK  172  A    between atoms: _409  and  _410
REMARK  173  A    between atoms: _413  and  _415
REMARK  174  A    between atoms: _415  and  _416
REMARK  175  A    between atoms: _418  and  _420
REMARK  176  A    between atoms: _420  and  _421
REMARK  177  A    between atoms: _423  and  _425
REMARK  178  A    between atoms: _425  and  _426
REMARK  179  A    between atoms: _425  and  _428
REMARK  180  A    between atoms: _431  and  _433
REMARK  181  A    between atoms: _433  and  _434
REMARK  182  A    between atoms: _436  and  _438
REMARK  183  A    between atoms: _438  and  _439
REMARK  184  A    between atoms: _441  and  _443
REMARK  185  A    between atoms: _443  and  _444
REMARK  186  A    between atoms: _443  and  _446
REMARK  187  A    between atoms: _446  and  _447
REMARK  188  A    between atoms: _453  and  _455
REMARK  189  A    between atoms: _455  and  _456
REMARK  190  A    between atoms: _455  and  _458
REMARK  191  A    between atoms: _458  and  _459
REMARK  192  A    between atoms: _462  and  _464
REMARK  193  A    between atoms: _464  and  _465
REMARK  194  A    between atoms: _464  and  _467
REMARK  195  A    between atoms: _470  and  _472
REMARK  196  A    between atoms: _472  and  _473
REMARK  197  A    between atoms: _472  and  _475
REMARK  198  A    between atoms: _475  and  _476
REMARK  199  A    between atoms: _480  and  _481
REMARK  200  A    between atoms: _486  and  _488
REMARK  201  A    between atoms: _488  and  _489
REMARK  202  A    between atoms: _488  and  _491
REMARK  203  A    between atoms: _491  and  _492
REMARK  204  A    between atoms: _496  and  _497
REMARK  205  A    between atoms: _502  and  _504
REMARK  206  A    between atoms: _504  and  _505
REMARK  207  A    between atoms: _504  and  _507
REMARK  208  A    between atoms: _510  and  _512
REMARK  209  A    between atoms: _512  and  _513
REMARK  210  A    between atoms: _512  and  _515
REMARK  211  A    between atoms: _515  and  _516
REMARK  212  A    between atoms: _521  and  _523
REMARK  213  A    between atoms: _523  and  _524
REMARK  214  A    between atoms: _523  and  _526
REMARK  215  A    between atoms: _526  and  _527
REMARK  216  A    between atoms: _530  and  _532
REMARK  217  A    between atoms: _532  and  _533
REMARK  218  A    between atoms: _532  and  _535
REMARK  219  A    between atoms: _535  and  _536
REMARK  220  A    between atoms: _539  and  _541
REMARK  221  A    between atoms: _541  and  _542
REMARK  222  A    between atoms: _544  and  _546
REMARK  223  A    between atoms: _546  and  _547
REMARK  224  A    between atoms: _546  and  _549
REMARK  225  A    between atoms: _549  and  _550
REMARK  226  A    between atoms: _550  and  _551
REMARK  227  A    between atoms: _551  and  _552
REMARK  228  A    between atoms: _561  and  _563
REMARK  229  A    between atoms: _563  and  _564
REMARK  230  A    between atoms: _563  and  _566
REMARK  231  A    between atoms: _566  and  _567
REMARK                            x       y       z     vdW  Elec       q    Type
REMARK                         _______ _______ _______ _____ _____    ______ ____
ROOT
ATOM      1  O   HOH     1      -4.227   8.904 -15.715  0.00  0.00    +0.000 OA
ENDROOT
TORSDOF 0
REMARK  Name = ../refined-set-2016/2r3t/2r3t_pocket.pdb
REMARK  231 active torsions:
REMARK  status: ('A' for Active; 'I' for Inactive)
REMARK    1  A    between atoms: _1  and  _3
REMARK    2  A    between atoms: _3  and  _4
REMARK    3  A    between atoms: _3  and  _6
REMARK    4  A    between atoms: _6  and  _7
REMARK    5  A    between atoms: _7  and  _8
REMARK    6  A    between atoms: _8  and  _9
REMARK    7  A    between atoms: _18  and  _20
REMARK    8  A    between atoms: _20  and  _21
REMARK    9  A    between atoms: _20  and  _23
REMARK   10  A    between atoms: _23  and  _24
REMARK   11  A    between atoms: _27  and  _29
REMARK   12  A    between atoms: _29  and  _30
REMARK   13  A    between atoms: _29  and  _32
REMARK   14  A    between atoms: _32  and  _33
REMARK   15  A    between atoms: _36  and  _38
REMARK   16  A    between atoms: _38  and  _39
REMARK   17  A    between atoms: _38  and  _41
REMARK   18  A    between atoms: _41  and  _42
REMARK   19  A    between atoms: _45  and  _47
REMARK   20  A    between atoms: _47  and  _48
REMARK   21  A    between atoms: _47  and  _50
REMARK   22  A    between atoms: _50  and  _51
REMARK   23  A    between atoms: _54  and  _56
REMARK   24  A    between atoms: _56  and  _57
REMARK   25  A    between atoms: _59  and  _61
REMARK   26  A    between atoms: _61  and  _62
REMARK   27  A    between atoms: _65  and  _67
REMARK   28  A    between atoms: _67  and  _68
REMARK   29  A    between atoms: _67  and  _70
REMARK   30  A    between atoms: _70  and  _71
REMARK   31  A    between atoms: _74  and  _76
REMARK   32  A    between atoms: _76  and  _77
REMARK   33  A    between atoms: _76  and  _79
REMARK   34  A    between atoms: _79  and  _80
REMARK   35  A    between atoms: _83  and  _85
REMARK   36  A    between atoms: _85  and  _86
REMARK   37  A    between atoms: _85  and  _88
REMARK   38  A    between atoms: _88  and  _89
REMARK   39  A    between atoms: _92  and  _94
REMARK   40  A    between atoms: _94  and  _95
REMARK   41  A    between atoms: _94  and  _97
REMARK   42  A    between atoms: _100  and  _102
REMARK   43  A    between atoms: _102  and  _103
REMARK   44  A    between atoms: _102  and  _105
REMARK   45  A    between atoms: _105  and  _106
REMARK   46  A    between atoms: _106  and  _107
REMARK   47  A    between atoms: _107  and  _108
REMARK   48  A    between atoms: _108  and  _109
REMARK   49  A    between atoms: _113  and  _115
REMARK   50  A    between atoms: _115  and  _116
REMARK   51  A    between atoms: _115  and  _118
REMARK   52  A    between atoms: _118  and  _119
REMARK   53  A    between atoms: _119  and  _120
REMARK   54  A    between atoms: _122  and  _124
REMARK   55  A    between atoms: _124  and  _125
REMARK   56  A    between atoms: _124  and  _127
REMARK   57  A    between atoms: _127  and  _128
REMARK   58  A    between atoms: _131  and  _133
REMARK   59  A    between atoms: _133  and  _134
REMARK   60  A    between atoms: _136  and  _138
REMARK   61  A    between atoms: _138  and  _139
REMARK   62  A    between atoms: _141  and  _143
REMARK   63  A    between atoms: _143  and  _144
REMARK   64  A    between atoms: _143  and  _146
REMARK   65  A    between atoms: _149  and  _151
REMARK   66  A    between atoms: _151  and  _152
REMARK   67  A    between atoms: _154  and  _156
REMARK   68  A    between atoms: _156  and  _157
REMARK   69  A    between atoms: _159  and  _161
REMARK   70  A    between atoms: _161  and  _162
REMARK   71  A    between atoms: _161  and  _164
REMARK   72  A    between atoms: _164  and  _165
REMARK   73  A    between atoms: _171  and  _173
REMARK   74  A    between atoms: _173  and  _174
REMARK   75  A    between atoms: _173  and  _176
REMARK   76  A    between atoms: _176  and  _177
REMARK   77  A    between atoms: _180  and  _182
REMARK   78  A    between atoms: _182  and  _183
REMARK   79  A    between atoms: _182  and  _185
REMARK   80  A    between atoms: _188  and  _190
REMARK   81  A    between atoms: _190  and  _191
REMARK   82  A    between atoms: _190  and  _193
REMARK   83  A    between atoms: _193  and  _194
REMARK   84  A    between atoms: _197  and  _199
REMARK   85  A    between atoms: _199  and  _200
REMARK   86  A    between atoms: _199  and  _202
REMARK   87  A    between atoms: _202  and  _203
REMARK   88  A    between atoms: _207  and  _208
REMARK   89  A    between atoms: _213  and  _215
REMARK   90  A    between atoms: _215  and  _216
REMARK   91  A    between atoms: _215  and  _218
REMARK   92  A    between atoms: _221  and  _223
REMARK   93  A    between atoms: _223  and  _224
REMARK   94  A    between atoms: _223  and  _226
REMARK   95  A    between atoms: _226  and  _227
REMARK   96  A    between atoms: _232  and  _234
REMARK   97  A    between atoms: _234  and  _235
REMARK   98  A    between atoms: _234  and  _237
REMARK   99  A    between atoms: _237  and  _238
REMARK  100  A    between atoms: _241  and  _243
REMARK  101  A    between atoms: _243  and  _244
REMARK  102  A    between atoms: _243  and  _246
REMARK  103  A    between atoms: _246  and  _247
REMARK  104  A    between atoms: _250  and  _252
REMARK  105  A    between atoms: _252  and  _253
REMARK  106  A    between atoms: _255  and  _257
REMARK  107  A    between atoms: _257  and  _258
REMARK  108  A    between atoms: _257  and  _260
REMARK  109  A    between atoms: _260  and  _261
REMARK  110  A    between atoms: _261  and  _262
REMARK  111  A    between atoms: _262  and  _263
REMARK  112  A    between atoms: _272  and  _274
REMARK  113  A    between atoms: _274  and  _275
REMARK  114  A    between atoms: _274  and  _277
REMARK  115  A    between atoms: _277  and  _278
REMARK  116  A    between atoms: _283  and  _285
REMARK  117  A    between atoms: _285  and  _286
REMARK  118  A    between atoms: _285  and  _288
REMARK  119  A    between atoms: _288  and  _289
REMARK  120  A    between atoms: _289  and  _290
REMARK  121  A    between atoms: _290  and  _291
REMARK  122  A    between atoms: _300  and  _302
REMARK  123  A    between atoms: _302  and  _303
REMARK  124  A    between atoms: _302  and  _305
REMARK  125  A    between atoms: _305  and  _306
REMARK  126  A    between atoms: _309  and  _311
REMARK  127  A    between atoms: _311  and  _312
REMARK  128  A    between atoms: _311  and  _314
REMARK  129  A    between atoms: _314  and  _315
REMARK  130  A    between atoms: _318  and  _320
REMARK  131  A    between atoms: _320  and  _321
REMARK  132  A    between atoms: _320  and  _323
REMARK  133  A    between atoms: _323  and  _324
REMARK  134  A    between atoms: _327  and  _329
REMARK  135  A    between atoms: _329  and  _330
REMARK  136  A    between atoms: _329  and  _332
REMARK  137  A    between atoms: _332  and  _333
REMARK  138  A    between atoms: _336  and  _338
REMARK  139  A    between atoms: _338  and  _339
REMARK  140  A    between atoms: _341  and  _343
REMARK  141  A    between atoms: _343  and  _344
REMARK  142  A    between atoms: _347  and  _349
REMARK  143  A    between atoms: _349  and  _350
REMARK  144  A    between atoms: _349  and  _352
REMARK  145  A    between atoms: _352  and  _353
REMARK  146  A    between atoms: _356  and  _358
REMARK  147  A    between atoms: _358  and  _359
REMARK  148  A    between atoms: _358  and  _361
REMARK  149  A    between atoms: _361  and  _362
REMARK  150  A    between atoms: _365  and  _367
REMARK  151  A    between atoms: _367  and  _368
REMARK  152  A    between atoms: _367  and  _370
REMARK  153  A    between atoms: _370  and  _371
REMARK  154  A    between atoms: _374  and  _376
REMARK  155  A    between atoms: _376  and  _377
REMARK  156  A    between atoms: _376  and  _379
REMARK  157  A    between atoms: _382  and  _384
REMARK  158  A    between atoms: _384  and  _385
REMARK  159  A    between atoms: _384  and  _387
REMARK  160  A    between atoms: _387  and  _388
REMARK  161  A    between atoms: _388  and  _389
REMARK  162  A    between atoms: _389  and  _390
REMARK  163  A    between atoms: _390  and  _391
REMARK  164  A    between atoms: _395  and  _397
REMARK  165  A    between atoms: _397  and  _398
REMARK  166  A    between atoms: _397  and  _400
REMARK  167  A    between atoms: _400  and  _401
REMARK  168  A    between atoms: _401  and  _402
REMARK  169  A    between atoms: _404  and  _406
REMARK  170  A    between atoms: _406  and  _407
REMARK  171  A    between atoms: _406  and  _409
REMARK  172  A    between atoms: _409  and  _410
REMARK  173  A    between atoms: _413  and  _415
REMARK  174  A    between atoms: _415  and  _416
REMARK  175  A    between atoms: _418  and  _420
REMARK  176  A    between atoms: _420  and  _421
REMARK  177  A    between atoms: _423  and  _425
REMARK  178  A    between atoms: _425  and  _426
REMARK  179  A    between atoms: _425  and  _428
REMARK  180  A    between atoms: _431  and  _433
REMARK  181  A    between atoms: _433  and  _434
REMARK  182  A    between atoms: _436  and  _438
REMARK  183  A    between atoms: _438  and  _439
REMARK  184  A    between atoms: _441  and  _443
REMARK  185  A    between atoms: _443  and  _444
REMARK  186  A    between atoms: _443  and  _446
REMARK  187  A    between atoms: _446  and  _447
REMARK  188  A    between atoms: _453  and  _455
REMARK  189  A    between atoms: _455  and  _456
REMARK  190  A    between atoms: _455  and  _458
REMARK  191  A    between atoms: _458  and  _459
REMARK  192  A    between atoms: _462  and  _464
REMARK  193  A    between atoms: _464  and  _465
REMARK  194  A    between atoms: _464  and  _467
REMARK  195  A    between atoms: _470  and  _472
REMARK  196  A    between atoms: _472  and  _473
REMARK  197  A    between atoms: _472  and  _475
REMARK  198  A    between atoms: _475  and  _476
REMARK  199  A    between atoms: _480  and  _481
REMARK  200  A    between atoms: _486  and  _488
REMARK  201  A    between atoms: _488  and  _489
REMARK  202  A    between atoms: _488  and  _491
REMARK  203  A    between atoms: _491  and  _492
REMARK  204  A    between atoms: _496  and  _497
REMARK  205  A    between atoms: _502  and  _504
REMARK  206  A    between atoms: _504  and  _505
REMARK  207  A    between atoms: _504  and  _507
REMARK  208  A    between atoms: _510  and  _512
REMARK  209  A    between atoms: _512  and  _513
REMARK  210  A    between atoms: _512  and  _515
REMARK  211  A    between atoms: _515  and  _516
REMARK  212  A    between atoms: _521  and  _523
REMARK  213  A    between atoms: _523  and  _524
REMARK  214  A    between atoms: _523  and  _526
REMARK  215  A    between atoms: _526  and  _527
REMARK  216  A    between atoms: _530  and  _532
REMARK  217  A    between atoms: _532  and  _533
REMARK  218  A    between atoms: _532  and  _535
REMARK  219  A    between atoms: _535  and  _536
REMARK  220  A    between atoms: _539  and  _541
REMARK  221  A    between atoms: _541  and  _542
REMARK  222  A    between atoms: _544  and  _546
REMARK  223  A    between atoms: _546  and  _547
REMARK  224  A    between atoms: _546  and  _549
REMARK  225  A    between atoms: _549  and  _550
REMARK  226  A    between atoms: _550  and  _551
REMARK  227  A    between atoms: _551  and  _552
REMARK  228  A    between atoms: _561  and  _563
REMARK  229  A    between atoms: _563  and  _564
REMARK  230  A    between atoms: _563  and  _566
REMARK  231  A    between atoms: _566  and  _567
REMARK                            x       y       z     vdW  Elec       q    Type
REMARK                         _______ _______ _______ _____ _____    ______ ____
ROOT
ATOM      1  O   HOH     1      -5.736   5.844 -13.168  0.00  0.00    +0.000 OA
ENDROOT
TORSDOF 0
REMARK  Name = ../refined-set-2016/2r3t/2r3t_pocket.pdb
REMARK  231 active torsions:
REMARK  status: ('A' for Active; 'I' for Inactive)
REMARK    1  A    between atoms: _1  and  _3
REMARK    2  A    between atoms: _3  and  _4
REMARK    3  A    between atoms: _3  and  _6
REMARK    4  A    between atoms: _6  and  _7
REMARK    5  A    between atoms: _7  and  _8
REMARK    6  A    between atoms: _8  and  _9
REMARK    7  A    between atoms: _18  and  _20
REMARK    8  A    between atoms: _20  and  _21
REMARK    9  A    between atoms: _20  and  _23
REMARK   10  A    between atoms: _23  and  _24
REMARK   11  A    between atoms: _27  and  _29
REMARK   12  A    between atoms: _29  and  _30
REMARK   13  A    between atoms: _29  and  _32
REMARK   14  A    between atoms: _32  and  _33
REMARK   15  A    between atoms: _36  and  _38
REMARK   16  A    between atoms: _38  and  _39
REMARK   17  A    between atoms: _38  and  _41
REMARK   18  A    between atoms: _41  and  _42
REMARK   19  A    between atoms: _45  and  _47
REMARK   20  A    between atoms: _47  and  _48
REMARK   21  A    between atoms: _47  and  _50
REMARK   22  A    between atoms: _50  and  _51
REMARK   23  A    between atoms: _54  and  _56
REMARK   24  A    between atoms: _56  and  _57
REMARK   25  A    between atoms: _59  and  _61
REMARK   26  A    between atoms: _61  and  _62
REMARK   27  A    between atoms: _65  and  _67
REMARK   28  A    between atoms: _67  and  _68
REMARK   29  A    between atoms: _67  and  _70
REMARK   30  A    between atoms: _70  and  _71
REMARK   31  A    between atoms: _74  and  _76
REMARK   32  A    between atoms: _76  and  _77
REMARK   33  A    between atoms: _76  and  _79
REMARK   34  A    between atoms: _79  and  _80
REMARK   35  A    between atoms: _83  and  _85
REMARK   36  A    between atoms: _85  and  _86
REMARK   37  A    between atoms: _85  and  _88
REMARK   38  A    between atoms: _88  and  _89
REMARK   39  A    between atoms: _92  and  _94
REMARK   40  A    between atoms: _94  and  _95
REMARK   41  A    between atoms: _94  and  _97
REMARK   42  A    between atoms: _100  and  _102
REMARK   43  A    between atoms: _102  and  _103
REMARK   44  A    between atoms: _102  and  _105
REMARK   45  A    between atoms: _105  and  _106
REMARK   46  A    between atoms: _106  and  _107
REMARK   47  A    between atoms: _107  and  _108
REMARK   48  A    between atoms: _108  and  _109
REMARK   49  A    between atoms: _113  and  _115
REMARK   50  A    between atoms: _115  and  _116
REMARK   51  A    between atoms: _115  and  _118
REMARK   52  A    between atoms: _118  and  _119
REMARK   53  A    between atoms: _119  and  _120
REMARK   54  A    between atoms: _122  and  _124
REMARK   55  A    between atoms: _124  and  _125
REMARK   56  A    between atoms: _124  and  _127
REMARK   57  A    between atoms: _127  and  _128
REMARK   58  A    between atoms: _131  and  _133
REMARK   59  A    between atoms: _133  and  _134
REMARK   60  A    between atoms: _136  and  _138
REMARK   61  A    between atoms: _138  and  _139
REMARK   62  A    between atoms: _141  and  _143
REMARK   63  A    between atoms: _143  and  _144
REMARK   64  A    between atoms: _143  and  _146
REMARK   65  A    between atoms: _149  and  _151
REMARK   66  A    between atoms: _151  and  _152
REMARK   67  A    between atoms: _154  and  _156
REMARK   68  A    between atoms: _156  and  _157
REMARK   69  A    between atoms: _159  and  _161
REMARK   70  A    between atoms: _161  and  _162
REMARK   71  A    between atoms: _161  and  _164
REMARK   72  A    between atoms: _164  and  _165
REMARK   73  A    between atoms: _171  and  _173
REMARK   74  A    between atoms: _173  and  _174
REMARK   75  A    between atoms: _173  and  _176
REMARK   76  A    between atoms: _176  and  _177
REMARK   77  A    between atoms: _180  and  _182
REMARK   78  A    between atoms: _182  and  _183
REMARK   79  A    between atoms: _182  and  _185
REMARK   80  A    between atoms: _188  and  _190
REMARK   81  A    between atoms: _190  and  _191
REMARK   82  A    between atoms: _190  and  _193
REMARK   83  A    between atoms: _193  and  _194
REMARK   84  A    between atoms: _197  and  _199
REMARK   85  A    between atoms: _199  and  _200
REMARK   86  A    between atoms: _199  and  _202
REMARK   87  A    between atoms: _202  and  _203
REMARK   88  A    between atoms: _207  and  _208
REMARK   89  A    between atoms: _213  and  _215
REMARK   90  A    between atoms: _215  and  _216
REMARK   91  A    between atoms: _215  and  _218
REMARK   92  A    between atoms: _221  and  _223
REMARK   93  A    between atoms: _223  and  _224
REMARK   94  A    between atoms: _223  and  _226
REMARK   95  A    between atoms: _226  and  _227
REMARK   96  A    between atoms: _232  and  _234
REMARK   97  A    between atoms: _234  and  _235
REMARK   98  A    between atoms: _234  and  _237
REMARK   99  A    between atoms: _237  and  _238
REMARK  100  A    between atoms: _241  and  _243
REMARK  101  A    between atoms: _243  and  _244
REMARK  102  A    between atoms: _243  and  _246
REMARK  103  A    between atoms: _246  and  _247
REMARK  104  A    between atoms: _250  and  _252
REMARK  105  A    between atoms: _252  and  _253
REMARK  106  A    between atoms: _255  and  _257
REMARK  107  A    between atoms: _257  and  _258
REMARK  108  A    between atoms: _257  and  _260
REMARK  109  A    between atoms: _260  and  _261
REMARK  110  A    between atoms: _261  and  _262
REMARK  111  A    between atoms: _262  and  _263
REMARK  112  A    between atoms: _272  and  _274
REMARK  113  A    between atoms: _274  and  _275
REMARK  114  A    between atoms: _274  and  _277
REMARK  115  A    between atoms: _277  and  _278
REMARK  116  A    between atoms: _283  and  _285
REMARK  117  A    between atoms: _285  and  _286
REMARK  118  A    between atoms: _285  and  _288
REMARK  119  A    between atoms: _288  and  _289
REMARK  120  A    between atoms: _289  and  _290
REMARK  121  A    between atoms: _290  and  _291
REMARK  122  A    between atoms: _300  and  _302
REMARK  123  A    between atoms: _302  and  _303
REMARK  124  A    between atoms: _302  and  _305
REMARK  125  A    between atoms: _305  and  _306
REMARK  126  A    between atoms: _309  and  _311
REMARK  127  A    between atoms: _311  and  _312
REMARK  128  A    between atoms: _311  and  _314
REMARK  129  A    between atoms: _314  and  _315
REMARK  130  A    between atoms: _318  and  _320
REMARK  131  A    between atoms: _320  and  _321
REMARK  132  A    between atoms: _320  and  _323
REMARK  133  A    between atoms: _323  and  _324
REMARK  134  A    between atoms: _327  and  _329
REMARK  135  A    between atoms: _329  and  _330
REMARK  136  A    between atoms: _329  and  _332
REMARK  137  A    between atoms: _332  and  _333
REMARK  138  A    between atoms: _336  and  _338
REMARK  139  A    between atoms: _338  and  _339
REMARK  140  A    between atoms: _341  and  _343
REMARK  141  A    between atoms: _343  and  _344
REMARK  142  A    between atoms: _347  and  _349
REMARK  143  A    between atoms: _349  and  _350
REMARK  144  A    between atoms: _349  and  _352
REMARK  145  A    between atoms: _352  and  _353
REMARK  146  A    between atoms: _356  and  _358
REMARK  147  A    between atoms: _358  and  _359
REMARK  148  A    between atoms: _358  and  _361
REMARK  149  A    between atoms: _361  and  _362
REMARK  150  A    between atoms: _365  and  _367
REMARK  151  A    between atoms: _367  and  _368
REMARK  152  A    between atoms: _367  and  _370
REMARK  153  A    between atoms: _370  and  _371
REMARK  154  A    between atoms: _374  and  _376
REMARK  155  A    between atoms: _376  and  _377
REMARK  156  A    between atoms: _376  and  _379
REMARK  157  A    between atoms: _382  and  _384
REMARK  158  A    between atoms: _384  and  _385
REMARK  159  A    between atoms: _384  and  _387
REMARK  160  A    between atoms: _387  and  _388
REMARK  161  A    between atoms: _388  and  _389
REMARK  162  A    between atoms: _389  and  _390
REMARK  163  A    between atoms: _390  and  _391
REMARK  164  A    between atoms: _395  and  _397
REMARK  165  A    between atoms: _397  and  _398
REMARK  166  A    between atoms: _397  and  _400
REMARK  167  A    between atoms: _400  and  _401
REMARK  168  A    between atoms: _401  and  _402
REMARK  169  A    between atoms: _404  and  _406
REMARK  170  A    between atoms: _406  and  _407
REMARK  171  A    between atoms: _406  and  _409
REMARK  172  A    between atoms: _409  and  _410
REMARK  173  A    between atoms: _413  and  _415
REMARK  174  A    between atoms: _415  and  _416
REMARK  175  A    between atoms: _418  and  _420
REMARK  176  A    between atoms: _420  and  _421
REMARK  177  A    between atoms: _423  and  _425
REMARK  178  A    between atoms: _425  and  _426
REMARK  179  A    between atoms: _425  and  _428
REMARK  180  A    between atoms: _431  and  _433
REMARK  181  A    between atoms: _433  and  _434
REMARK  182  A    between atoms: _436  and  _438
REMARK  183  A    between atoms: _438  and  _439
REMARK  184  A    between atoms: _441  and  _443
REMARK  185  A    between atoms: _443  and  _444
REMARK  186  A    between atoms: _443  and  _446
REMARK  187  A    between atoms: _446  and  _447
REMARK  188  A    between atoms: _453  and  _455
REMARK  189  A    between atoms: _455  and  _456
REMARK  190  A    between atoms: _455  and  _458
REMARK  191  A    between atoms: _458  and  _459
REMARK  192  A    between atoms: _462  and  _464
REMARK  193  A    between atoms: _464  and  _465
REMARK  194  A    between atoms: _464  and  _467
REMARK  195  A    between atoms: _470  and  _472
REMARK  196  A    between atoms: _472  and  _473
REMARK  197  A    between atoms: _472  and  _475
REMARK  198  A    between atoms: _475  and  _476
REMARK  199  A    between atoms: _480  and  _481
REMARK  200  A    between atoms: _486  and  _488
REMARK  201  A    between atoms: _488  and  _489
REMARK  202  A    between atoms: _488  and  _491
REMARK  203  A    between atoms: _491  and  _492
REMARK  204  A    between atoms: _496  and  _497
REMARK  205  A    between atoms: _502  and  _504
REMARK  206  A    between atoms: _504  and  _505
REMARK  207  A    between atoms: _504  and  _507
REMARK  208  A    between atoms: _510  and  _512
REMARK  209  A    between atoms: _512  and  _513
REMARK  210  A    between atoms: _512  and  _515
REMARK  211  A    between atoms: _515  and  _516
REMARK  212  A    between atoms: _521  and  _523
REMARK  213  A    between atoms: _523  and  _524
REMARK  214  A    between atoms: _523  and  _526
REMARK  215  A    between atoms: _526  and  _527
REMARK  216  A    between atoms: _530  and  _532
REMARK  217  A    between atoms: _532  and  _533
REMARK  218  A    between atoms: _532  and  _535
REMARK  219  A    between atoms: _535  and  _536
REMARK  220  A    between atoms: _539  and  _541
REMARK  221  A    between atoms: _541  and  _542
REMARK  222  A    between atoms: _544  and  _546
REMARK  223  A    between atoms: _546  and  _547
REMARK  224  A    between atoms: _546  and  _549
REMARK  225  A    between atoms: _549  and  _550
REMARK  226  A    between atoms: _550  and  _551
REMARK  227  A    between atoms: _551  and  _552
REMARK  228  A    between atoms: _561  and  _563
REMARK  229  A    between atoms: _563  and  _564
REMARK  230  A    between atoms: _563  and  _566
REMARK  231  A    between atoms: _566  and  _567
REMARK                            x       y       z     vdW  Elec       q    Type
REMARK                         _______ _______ _______ _____ _____    ______ ____
ROOT
ATOM      1  O   HOH     1      -1.564   9.861 -12.135  0.00  0.00    +0.000 OA
ENDROOT
TORSDOF 0
REMARK  Name = ../refined-set-2016/2r3t/2r3t_pocket.pdb
REMARK  231 active torsions:
REMARK  status: ('A' for Active; 'I' for Inactive)
REMARK    1  A    between atoms: _1  and  _3
REMARK    2  A    between atoms: _3  and  _4
REMARK    3  A    between atoms: _3  and  _6
REMARK    4  A    between atoms: _6  and  _7
REMARK    5  A    between atoms: _7  and  _8
REMARK    6  A    between atoms: _8  and  _9
REMARK    7  A    between atoms: _18  and  _20
REMARK    8  A    between atoms: _20  and  _21
REMARK    9  A    between atoms: _20  and  _23
REMARK   10  A    between atoms: _23  and  _24
REMARK   11  A    between atoms: _27  and  _29
REMARK   12  A    between atoms: _29  and  _30
REMARK   13  A    between atoms: _29  and  _32
REMARK   14  A    between atoms: _32  and  _33
REMARK   15  A    between atoms: _36  and  _38
REMARK   16  A    between atoms: _38  and  _39
REMARK   17  A    between atoms: _38  and  _41
REMARK   18  A    between atoms: _41  and  _42
REMARK   19  A    between atoms: _45  and  _47
REMARK   20  A    between atoms: _47  and  _48
REMARK   21  A    between atoms: _47  and  _50
REMARK   22  A    between atoms: _50  and  _51
REMARK   23  A    between atoms: _54  and  _56
REMARK   24  A    between atoms: _56  and  _57
REMARK   25  A    between atoms: _59  and  _61
REMARK   26  A    between atoms: _61  and  _62
REMARK   27  A    between atoms: _65  and  _67
REMARK   28  A    between atoms: _67  and  _68
REMARK   29  A    between atoms: _67  and  _70
REMARK   30  A    between atoms: _70  and  _71
REMARK   31  A    between atoms: _74  and  _76
REMARK   32  A    between atoms: _76  and  _77
REMARK   33  A    between atoms: _76  and  _79
REMARK   34  A    between atoms: _79  and  _80
REMARK   35  A    between atoms: _83  and  _85
REMARK   36  A    between atoms: _85  and  _86
REMARK   37  A    between atoms: _85  and  _88
REMARK   38  A    between atoms: _88  and  _89
REMARK   39  A    between atoms: _92  and  _94
REMARK   40  A    between atoms: _94  and  _95
REMARK   41  A    between atoms: _94  and  _97
REMARK   42  A    between atoms: _100  and  _102
REMARK   43  A    between atoms: _102  and  _103
REMARK   44  A    between atoms: _102  and  _105
REMARK   45  A    between atoms: _105  and  _106
REMARK   46  A    between atoms: _106  and  _107
REMARK   47  A    between atoms: _107  and  _108
REMARK   48  A    between atoms: _108  and  _109
REMARK   49  A    between atoms: _113  and  _115
REMARK   50  A    between atoms: _115  and  _116
REMARK   51  A    between atoms: _115  and  _118
REMARK   52  A    between atoms: _118  and  _119
REMARK   53  A    between atoms: _119  and  _120
REMARK   54  A    between atoms: _122  and  _124
REMARK   55  A    between atoms: _124  and  _125
REMARK   56  A    between atoms: _124  and  _127
REMARK   57  A    between atoms: _127  and  _128
REMARK   58  A    between atoms: _131  and  _133
REMARK   59  A    between atoms: _133  and  _134
REMARK   60  A    between atoms: _136  and  _138
REMARK   61  A    between atoms: _138  and  _139
REMARK   62  A    between atoms: _141  and  _143
REMARK   63  A    between atoms: _143  and  _144
REMARK   64  A    between atoms: _143  and  _146
REMARK   65  A    between atoms: _149  and  _151
REMARK   66  A    between atoms: _151  and  _152
REMARK   67  A    between atoms: _154  and  _156
REMARK   68  A    between atoms: _156  and  _157
REMARK   69  A    between atoms: _159  and  _161
REMARK   70  A    between atoms: _161  and  _162
REMARK   71  A    between atoms: _161  and  _164
REMARK   72  A    between atoms: _164  and  _165
REMARK   73  A    between atoms: _171  and  _173
REMARK   74  A    between atoms: _173  and  _174
REMARK   75  A    between atoms: _173  and  _176
REMARK   76  A    between atoms: _176  and  _177
REMARK   77  A    between atoms: _180  and  _182
REMARK   78  A    between atoms: _182  and  _183
REMARK   79  A    between atoms: _182  and  _185
REMARK   80  A    between atoms: _188  and  _190
REMARK   81  A    between atoms: _190  and  _191
REMARK   82  A    between atoms: _190  and  _193
REMARK   83  A    between atoms: _193  and  _194
REMARK   84  A    between atoms: _197  and  _199
REMARK   85  A    between atoms: _199  and  _200
REMARK   86  A    between atoms: _199  and  _202
REMARK   87  A    between atoms: _202  and  _203
REMARK   88  A    between atoms: _207  and  _208
REMARK   89  A    between atoms: _213  and  _215
REMARK   90  A    between atoms: _215  and  _216
REMARK   91  A    between atoms: _215  and  _218
REMARK   92  A    between atoms: _221  and  _223
REMARK   93  A    between atoms: _223  and  _224
REMARK   94  A    between atoms: _223  and  _226
REMARK   95  A    between atoms: _226  and  _227
REMARK   96  A    between atoms: _232  and  _234
REMARK   97  A    between atoms: _234  and  _235
REMARK   98  A    between atoms: _234  and  _237
REMARK   99  A    between atoms: _237  and  _238
REMARK  100  A    between atoms: _241  and  _243
REMARK  101  A    between atoms: _243  and  _244
REMARK  102  A    between atoms: _243  and  _246
REMARK  103  A    between atoms: _246  and  _247
REMARK  104  A    between atoms: _250  and  _252
REMARK  105  A    between atoms: _252  and  _253
REMARK  106  A    between atoms: _255  and  _257
REMARK  107  A    between atoms: _257  and  _258
REMARK  108  A    between atoms: _257  and  _260
REMARK  109  A    between atoms: _260  and  _261
REMARK  110  A    between atoms: _261  and  _262
REMARK  111  A    between atoms: _262  and  _263
REMARK  112  A    between atoms: _272  and  _274
REMARK  113  A    between atoms: _274  and  _275
REMARK  114  A    between atoms: _274  and  _277
REMARK  115  A    between atoms: _277  and  _278
REMARK  116  A    between atoms: _283  and  _285
REMARK  117  A    between atoms: _285  and  _286
REMARK  118  A    between atoms: _285  and  _288
REMARK  119  A    between atoms: _288  and  _289
REMARK  120  A    between atoms: _289  and  _290
REMARK  121  A    between atoms: _290  and  _291
REMARK  122  A    between atoms: _300  and  _302
REMARK  123  A    between atoms: _302  and  _303
REMARK  124  A    between atoms: _302  and  _305
REMARK  125  A    between atoms: _305  and  _306
REMARK  126  A    between atoms: _309  and  _311
REMARK  127  A    between atoms: _311  and  _312
REMARK  128  A    between atoms: _311  and  _314
REMARK  129  A    between atoms: _314  and  _315
REMARK  130  A    between atoms: _318  and  _320
REMARK  131  A    between atoms: _320  and  _321
REMARK  132  A    between atoms: _320  and  _323
REMARK  133  A    between atoms: _323  and  _324
REMARK  134  A    between atoms: _327  and  _329
REMARK  135  A    between atoms: _329  and  _330
REMARK  136  A    between atoms: _329  and  _332
REMARK  137  A    between atoms: _332  and  _333
REMARK  138  A    between atoms: _336  and  _338
REMARK  139  A    between atoms: _338  and  _339
REMARK  140  A    between atoms: _341  and  _343
REMARK  141  A    between atoms: _343  and  _344
REMARK  142  A    between atoms: _347  and  _349
REMARK  143  A    between atoms: _349  and  _350
REMARK  144  A    between atoms: _349  and  _352
REMARK  145  A    between atoms: _352  and  _353
REMARK  146  A    between atoms: _356  and  _358
REMARK  147  A    between atoms: _358  and  _359
REMARK  148  A    between atoms: _358  and  _361
REMARK  149  A    between atoms: _361  and  _362
REMARK  150  A    between atoms: _365  and  _367
REMARK  151  A    between atoms: _367  and  _368
REMARK  152  A    between atoms: _367  and  _370
REMARK  153  A    between atoms: _370  and  _371
REMARK  154  A    between atoms: _374  and  _376
REMARK  155  A    between atoms: _376  and  _377
REMARK  156  A    between atoms: _376  and  _379
REMARK  157  A    between atoms: _382  and  _384
REMARK  158  A    between atoms: _384  and  _385
REMARK  159  A    between atoms: _384  and  _387
REMARK  160  A    between atoms: _387  and  _388
REMARK  161  A    between atoms: _388  and  _389
REMARK  162  A    between atoms: _389  and  _390
REMARK  163  A    between atoms: _390  and  _391
REMARK  164  A    between atoms: _395  and  _397
REMARK  165  A    between atoms: _397  and  _398
REMARK  166  A    between atoms: _397  and  _400
REMARK  167  A    between atoms: _400  and  _401
REMARK  168  A    between atoms: _401  and  _402
REMARK  169  A    between atoms: _404  and  _406
REMARK  170  A    between atoms: _406  and  _407
REMARK  171  A    between atoms: _406  and  _409
REMARK  172  A    between atoms: _409  and  _410
REMARK  173  A    between atoms: _413  and  _415
REMARK  174  A    between atoms: _415  and  _416
REMARK  175  A    between atoms: _418  and  _420
REMARK  176  A    between atoms: _420  and  _421
REMARK  177  A    between atoms: _423  and  _425
REMARK  178  A    between atoms: _425  and  _426
REMARK  179  A    between atoms: _425  and  _428
REMARK  180  A    between atoms: _431  and  _433
REMARK  181  A    between atoms: _433  and  _434
REMARK  182  A    between atoms: _436  and  _438
REMARK  183  A    between atoms: _438  and  _439
REMARK  184  A    between atoms: _441  and  _443
REMARK  185  A    between atoms: _443  and  _444
REMARK  186  A    between atoms: _443  and  _446
REMARK  187  A    between atoms: _446  and  _447
REMARK  188  A    between atoms: _453  and  _455
REMARK  189  A    between atoms: _455  and  _456
REMARK  190  A    between atoms: _455  and  _458
REMARK  191  A    between atoms: _458  and  _459
REMARK  192  A    between atoms: _462  and  _464
REMARK  193  A    between atoms: _464  and  _465
REMARK  194  A    between atoms: _464  and  _467
REMARK  195  A    between atoms: _470  and  _472
REMARK  196  A    between atoms: _472  and  _473
REMARK  197  A    between atoms: _472  and  _475
REMARK  198  A    between atoms: _475  and  _476
REMARK  199  A    between atoms: _480  and  _481
REMARK  200  A    between atoms: _486  and  _488
REMARK  201  A    between atoms: _488  and  _489
REMARK  202  A    between atoms: _488  and  _491
REMARK  203  A    between atoms: _491  and  _492
REMARK  204  A    between atoms: _496  and  _497
REMARK  205  A    between atoms: _502  and  _504
REMARK  206  A    between atoms: _504  and  _505
REMARK  207  A    between atoms: _504  and  _507
REMARK  208  A    between atoms: _510  and  _512
REMARK  209  A    between atoms: _512  and  _513
REMARK  210  A    between atoms: _512  and  _515
REMARK  211  A    between atoms: _515  and  _516
REMARK  212  A    between atoms: _521  and  _523
REMARK  213  A    between atoms: _523  and  _524
REMARK  214  A    between atoms: _523  and  _526
REMARK  215  A    between atoms: _526  and  _527
REMARK  216  A    between atoms: _530  and  _532
REMARK  217  A    between atoms: _532  and  _533
REMARK  218  A    between atoms: _532  and  _535
REMARK  219  A    between atoms: _535  and  _536
REMARK  220  A    between atoms: _539  and  _541
REMARK  221  A    between atoms: _541  and  _542
REMARK  222  A    between atoms: _544  and  _546
REMARK  223  A    between atoms: _546  and  _547
REMARK  224  A    between atoms: _546  and  _549
REMARK  225  A    between atoms: _549  and  _550
REMARK  226  A    between atoms: _550  and  _551
REMARK  227  A    between atoms: _551  and  _552
REMARK  228  A    between atoms: _561  and  _563
REMARK  229  A    between atoms: _563  and  _564
REMARK  230  A    between atoms: _563  and  _566
REMARK  231  A    between atoms: _566  and  _567
REMARK                            x       y       z     vdW  Elec       q    Type
REMARK                         _______ _______ _______ _____ _____    ______ ____
ROOT
ATOM      1  O   HOH     1      -8.396  13.813 -21.268  0.00  0.00    +0.000 OA
ENDROOT
TORSDOF 0
REMARK  Name = ../refined-set-2016/2r3t/2r3t_pocket.pdb
REMARK  231 active torsions:
REMARK  status: ('A' for Active; 'I' for Inactive)
REMARK    1  A    between atoms: _1  and  _3
REMARK    2  A    between atoms: _3  and  _4
REMARK    3  A    between atoms: _3  and  _6
REMARK    4  A    between atoms: _6  and  _7
REMARK    5  A    between atoms: _7  and  _8
REMARK    6  A    between atoms: _8  and  _9
REMARK    7  A    between atoms: _18  and  _20
REMARK    8  A    between atoms: _20  and  _21
REMARK    9  A    between atoms: _20  and  _23
REMARK   10  A    between atoms: _23  and  _24
REMARK   11  A    between atoms: _27  and  _29
REMARK   12  A    between atoms: _29  and  _30
REMARK   13  A    between atoms: _29  and  _32
REMARK   14  A    between atoms: _32  and  _33
REMARK   15  A    between atoms: _36  and  _38
REMARK   16  A    between atoms: _38  and  _39
REMARK   17  A    between atoms: _38  and  _41
REMARK   18  A    between atoms: _41  and  _42
REMARK   19  A    between atoms: _45  and  _47
REMARK   20  A    between atoms: _47  and  _48
REMARK   21  A    between atoms: _47  and  _50
REMARK   22  A    between atoms: _50  and  _51
REMARK   23  A    between atoms: _54  and  _56
REMARK   24  A    between atoms: _56  and  _57
REMARK   25  A    between atoms: _59  and  _61
REMARK   26  A    between atoms: _61  and  _62
REMARK   27  A    between atoms: _65  and  _67
REMARK   28  A    between atoms: _67  and  _68
REMARK   29  A    between atoms: _67  and  _70
REMARK   30  A    between atoms: _70  and  _71
REMARK   31  A    between atoms: _74  and  _76
REMARK   32  A    between atoms: _76  and  _77
REMARK   33  A    between atoms: _76  and  _79
REMARK   34  A    between atoms: _79  and  _80
REMARK   35  A    between atoms: _83  and  _85
REMARK   36  A    between atoms: _85  and  _86
REMARK   37  A    between atoms: _85  and  _88
REMARK   38  A    between atoms: _88  and  _89
REMARK   39  A    between atoms: _92  and  _94
REMARK   40  A    between atoms: _94  and  _95
REMARK   41  A    between atoms: _94  and  _97
REMARK   42  A    between atoms: _100  and  _102
REMARK   43  A    between atoms: _102  and  _103
REMARK   44  A    between atoms: _102  and  _105
REMARK   45  A    between atoms: _105  and  _106
REMARK   46  A    between atoms: _106  and  _107
REMARK   47  A    between atoms: _107  and  _108
REMARK   48  A    between atoms: _108  and  _109
REMARK   49  A    between atoms: _113  and  _115
REMARK   50  A    between atoms: _115  and  _116
REMARK   51  A    between atoms: _115  and  _118
REMARK   52  A    between atoms: _118  and  _119
REMARK   53  A    between atoms: _119  and  _120
REMARK   54  A    between atoms: _122  and  _124
REMARK   55  A    between atoms: _124  and  _125
REMARK   56  A    between atoms: _124  and  _127
REMARK   57  A    between atoms: _127  and  _128
REMARK   58  A    between atoms: _131  and  _133
REMARK   59  A    between atoms: _133  and  _134
REMARK   60  A    between atoms: _136  and  _138
REMARK   61  A    between atoms: _138  and  _139
REMARK   62  A    between atoms: _141  and  _143
REMARK   63  A    between atoms: _143  and  _144
REMARK   64  A    between atoms: _143  and  _146
REMARK   65  A    between atoms: _149  and  _151
REMARK   66  A    between atoms: _151  and  _152
REMARK   67  A    between atoms: _154  and  _156
REMARK   68  A    between atoms: _156  and  _157
REMARK   69  A    between atoms: _159  and  _161
REMARK   70  A    between atoms: _161  and  _162
REMARK   71  A    between atoms: _161  and  _164
REMARK   72  A    between atoms: _164  and  _165
REMARK   73  A    between atoms: _171  and  _173
REMARK   74  A    between atoms: _173  and  _174
REMARK   75  A    between atoms: _173  and  _176
REMARK   76  A    between atoms: _176  and  _177
REMARK   77  A    between atoms: _180  and  _182
REMARK   78  A    between atoms: _182  and  _183
REMARK   79  A    between atoms: _182  and  _185
REMARK   80  A    between atoms: _188  and  _190
REMARK   81  A    between atoms: _190  and  _191
REMARK   82  A    between atoms: _190  and  _193
REMARK   83  A    between atoms: _193  and  _194
REMARK   84  A    between atoms: _197  and  _199
REMARK   85  A    between atoms: _199  and  _200
REMARK   86  A    between atoms: _199  and  _202
REMARK   87  A    between atoms: _202  and  _203
REMARK   88  A    between atoms: _207  and  _208
REMARK   89  A    between atoms: _213  and  _215
REMARK   90  A    between atoms: _215  and  _216
REMARK   91  A    between atoms: _215  and  _218
REMARK   92  A    between atoms: _221  and  _223
REMARK   93  A    between atoms: _223  and  _224
REMARK   94  A    between atoms: _223  and  _226
REMARK   95  A    between atoms: _226  and  _227
REMARK   96  A    between atoms: _232  and  _234
REMARK   97  A    between atoms: _234  and  _235
REMARK   98  A    between atoms: _234  and  _237
REMARK   99  A    between atoms: _237  and  _238
REMARK  100  A    between atoms: _241  and  _243
REMARK  101  A    between atoms: _243  and  _244
REMARK  102  A    between atoms: _243  and  _246
REMARK  103  A    between atoms: _246  and  _247
REMARK  104  A    between atoms: _250  and  _252
REMARK  105  A    between atoms: _252  and  _253
REMARK  106  A    between atoms: _255  and  _257
REMARK  107  A    between atoms: _257  and  _258
REMARK  108  A    between atoms: _257  and  _260
REMARK  109  A    between atoms: _260  and  _261
REMARK  110  A    between atoms: _261  and  _262
REMARK  111  A    between atoms: _262  and  _263
REMARK  112  A    between atoms: _272  and  _274
REMARK  113  A    between atoms: _274  and  _275
REMARK  114  A    between atoms: _274  and  _277
REMARK  115  A    between atoms: _277  and  _278
REMARK  116  A    between atoms: _283  and  _285
REMARK  117  A    between atoms: _285  and  _286
REMARK  118  A    between atoms: _285  and  _288
REMARK  119  A    between atoms: _288  and  _289
REMARK  120  A    between atoms: _289  and  _290
REMARK  121  A    between atoms: _290  and  _291
REMARK  122  A    between atoms: _300  and  _302
REMARK  123  A    between atoms: _302  and  _303
REMARK  124  A    between atoms: _302  and  _305
REMARK  125  A    between atoms: _305  and  _306
REMARK  126  A    between atoms: _309  and  _311
REMARK  127  A    between atoms: _311  and  _312
REMARK  128  A    between atoms: _311  and  _314
REMARK  129  A    between atoms: _314  and  _315
REMARK  130  A    between atoms: _318  and  _320
REMARK  131  A    between atoms: _320  and  _321
REMARK  132  A    between atoms: _320  and  _323
REMARK  133  A    between atoms: _323  and  _324
REMARK  134  A    between atoms: _327  and  _329
REMARK  135  A    between atoms: _329  and  _330
REMARK  136  A    between atoms: _329  and  _332
REMARK  137  A    between atoms: _332  and  _333
REMARK  138  A    between atoms: _336  and  _338
REMARK  139  A    between atoms: _338  and  _339
REMARK  140  A    between atoms: _341  and  _343
REMARK  141  A    between atoms: _343  and  _344
REMARK  142  A    between atoms: _347  and  _349
REMARK  143  A    between atoms: _349  and  _350
REMARK  144  A    between atoms: _349  and  _352
REMARK  145  A    between atoms: _352  and  _353
REMARK  146  A    between atoms: _356  and  _358
REMARK  147  A    between atoms: _358  and  _359
REMARK  148  A    between atoms: _358  and  _361
REMARK  149  A    between atoms: _361  and  _362
REMARK  150  A    between atoms: _365  and  _367
REMARK  151  A    between atoms: _367  and  _368
REMARK  152  A    between atoms: _367  and  _370
REMARK  153  A    between atoms: _370  and  _371
REMARK  154  A    between atoms: _374  and  _376
REMARK  155  A    between atoms: _376  and  _377
REMARK  156  A    between atoms: _376  and  _379
REMARK  157  A    between atoms: _382  and  _384
REMARK  158  A    between atoms: _384  and  _385
REMARK  159  A    between atoms: _384  and  _387
REMARK  160  A    between atoms: _387  and  _388
REMARK  161  A    between atoms: _388  and  _389
REMARK  162  A    between atoms: _389  and  _390
REMARK  163  A    between atoms: _390  and  _391
REMARK  164  A    between atoms: _395  and  _397
REMARK  165  A    between atoms: _397  and  _398
REMARK  166  A    between atoms: _397  and  _400
REMARK  167  A    between atoms: _400  and  _401
REMARK  168  A    between atoms: _401  and  _402
REMARK  169  A    between atoms: _404  and  _406
REMARK  170  A    between atoms: _406  and  _407
REMARK  171  A    between atoms: _406  and  _409
REMARK  172  A    between atoms: _409  and  _410
REMARK  173  A    between atoms: _413  and  _415
REMARK  174  A    between atoms: _415  and  _416
REMARK  175  A    between atoms: _418  and  _420
REMARK  176  A    between atoms: _420  and  _421
REMARK  177  A    between atoms: _423  and  _425
REMARK  178  A    between atoms: _425  and  _426
REMARK  179  A    between atoms: _425  and  _428
REMARK  180  A    between atoms: _431  and  _433
REMARK  181  A    between atoms: _433  and  _434
REMARK  182  A    between atoms: _436  and  _438
REMARK  183  A    between atoms: _438  and  _439
REMARK  184  A    between atoms: _441  and  _443
REMARK  185  A    between atoms: _443  and  _444
REMARK  186  A    between atoms: _443  and  _446
REMARK  187  A    between atoms: _446  and  _447
REMARK  188  A    between atoms: _453  and  _455
REMARK  189  A    between atoms: _455  and  _456
REMARK  190  A    between atoms: _455  and  _458
REMARK  191  A    between atoms: _458  and  _459
REMARK  192  A    between atoms: _462  and  _464
REMARK  193  A    between atoms: _464  and  _465
REMARK  194  A    between atoms: _464  and  _467
REMARK  195  A    between atoms: _470  and  _472
REMARK  196  A    between atoms: _472  and  _473
REMARK  197  A    between atoms: _472  and  _475
REMARK  198  A    between atoms: _475  and  _476
REMARK  199  A    between atoms: _480  and  _481
REMARK  200  A    between atoms: _486  and  _488
REMARK  201  A    between atoms: _488  and  _489
REMARK  202  A    between atoms: _488  and  _491
REMARK  203  A    between atoms: _491  and  _492
REMARK  204  A    between atoms: _496  and  _497
REMARK  205  A    between atoms: _502  and  _504
REMARK  206  A    between atoms: _504  and  _505
REMARK  207  A    between atoms: _504  and  _507
REMARK  208  A    between atoms: _510  and  _512
REMARK  209  A    between atoms: _512  and  _513
REMARK  210  A    between atoms: _512  and  _515
REMARK  211  A    between atoms: _515  and  _516
REMARK  212  A    between atoms: _521  and  _523
REMARK  213  A    between atoms: _523  and  _524
REMARK  214  A    between atoms: _523  and  _526
REMARK  215  A    between atoms: _526  and  _527
REMARK  216  A    between atoms: _530  and  _532
REMARK  217  A    between atoms: _532  and  _533
REMARK  218  A    between atoms: _532  and  _535
REMARK  219  A    between atoms: _535  and  _536
REMARK  220  A    between atoms: _539  and  _541
REMARK  221  A    between atoms: _541  and  _542
REMARK  222  A    between atoms: _544  and  _546
REMARK  223  A    between atoms: _546  and  _547
REMARK  224  A    between atoms: _546  and  _549
REMARK  225  A    between atoms: _549  and  _550
REMARK  226  A    between atoms: _550  and  _551
REMARK  227  A    between atoms: _551  and  _552
REMARK  228  A    between atoms: _561  and  _563
REMARK  229  A    between atoms: _563  and  _564
REMARK  230  A    between atoms: _563  and  _566
REMARK  231  A    between atoms: _566  and  _567
REMARK                            x       y       z     vdW  Elec       q    Type
REMARK                         _______ _______ _______ _____ _____    ______ ____
ROOT
ATOM      1  O   HOH     1      -3.711  17.317 -15.974  0.00  0.00    +0.000 OA
ENDROOT
TORSDOF 0
REMARK  Name = ../refined-set-2016/2r3t/2r3t_pocket.pdb
REMARK  231 active torsions:
REMARK  status: ('A' for Active; 'I' for Inactive)
REMARK    1  A    between atoms: _1  and  _3
REMARK    2  A    between atoms: _3  and  _4
REMARK    3  A    between atoms: _3  and  _6
REMARK    4  A    between atoms: _6  and  _7
REMARK    5  A    between atoms: _7  and  _8
REMARK    6  A    between atoms: _8  and  _9
REMARK    7  A    between atoms: _18  and  _20
REMARK    8  A    between atoms: _20  and  _21
REMARK    9  A    between atoms: _20  and  _23
REMARK   10  A    between atoms: _23  and  _24
REMARK   11  A    between atoms: _27  and  _29
REMARK   12  A    between atoms: _29  and  _30
REMARK   13  A    between atoms: _29  and  _32
REMARK   14  A    between atoms: _32  and  _33
REMARK   15  A    between atoms: _36  and  _38
REMARK   16  A    between atoms: _38  and  _39
REMARK   17  A    between atoms: _38  and  _41
REMARK   18  A    between atoms: _41  and  _42
REMARK   19  A    between atoms: _45  and  _47
REMARK   20  A    between atoms: _47  and  _48
REMARK   21  A    between atoms: _47  and  _50
REMARK   22  A    between atoms: _50  and  _51
REMARK   23  A    between atoms: _54  and  _56
REMARK   24  A    between atoms: _56  and  _57
REMARK   25  A    between atoms: _59  and  _61
REMARK   26  A    between atoms: _61  and  _62
REMARK   27  A    between atoms: _65  and  _67
REMARK   28  A    between atoms: _67  and  _68
REMARK   29  A    between atoms: _67  and  _70
REMARK   30  A    between atoms: _70  and  _71
REMARK   31  A    between atoms: _74  and  _76
REMARK   32  A    between atoms: _76  and  _77
REMARK   33  A    between atoms: _76  and  _79
REMARK   34  A    between atoms: _79  and  _80
REMARK   35  A    between atoms: _83  and  _85
REMARK   36  A    between atoms: _85  and  _86
REMARK   37  A    between atoms: _85  and  _88
REMARK   38  A    between atoms: _88  and  _89
REMARK   39  A    between atoms: _92  and  _94
REMARK   40  A    between atoms: _94  and  _95
REMARK   41  A    between atoms: _94  and  _97
REMARK   42  A    between atoms: _100  and  _102
REMARK   43  A    between atoms: _102  and  _103
REMARK   44  A    between atoms: _102  and  _105
REMARK   45  A    between atoms: _105  and  _106
REMARK   46  A    between atoms: _106  and  _107
REMARK   47  A    between atoms: _107  and  _108
REMARK   48  A    between atoms: _108  and  _109
REMARK   49  A    between atoms: _113  and  _115
REMARK   50  A    between atoms: _115  and  _116
REMARK   51  A    between atoms: _115  and  _118
REMARK   52  A    between atoms: _118  and  _119
REMARK   53  A    between atoms: _119  and  _120
REMARK   54  A    between atoms: _122  and  _124
REMARK   55  A    between atoms: _124  and  _125
REMARK   56  A    between atoms: _124  and  _127
REMARK   57  A    between atoms: _127  and  _128
REMARK   58  A    between atoms: _131  and  _133
REMARK   59  A    between atoms: _133  and  _134
REMARK   60  A    between atoms: _136  and  _138
REMARK   61  A    between atoms: _138  and  _139
REMARK   62  A    between atoms: _141  and  _143
REMARK   63  A    between atoms: _143  and  _144
REMARK   64  A    between atoms: _143  and  _146
REMARK   65  A    between atoms: _149  and  _151
REMARK   66  A    between atoms: _151  and  _152
REMARK   67  A    between atoms: _154  and  _156
REMARK   68  A    between atoms: _156  and  _157
REMARK   69  A    between atoms: _159  and  _161
REMARK   70  A    between atoms: _161  and  _162
REMARK   71  A    between atoms: _161  and  _164
REMARK   72  A    between atoms: _164  and  _165
REMARK   73  A    between atoms: _171  and  _173
REMARK   74  A    between atoms: _173  and  _174
REMARK   75  A    between atoms: _173  and  _176
REMARK   76  A    between atoms: _176  and  _177
REMARK   77  A    between atoms: _180  and  _182
REMARK   78  A    between atoms: _182  and  _183
REMARK   79  A    between atoms: _182  and  _185
REMARK   80  A    between atoms: _188  and  _190
REMARK   81  A    between atoms: _190  and  _191
REMARK   82  A    between atoms: _190  and  _193
REMARK   83  A    between atoms: _193  and  _194
REMARK   84  A    between atoms: _197  and  _199
REMARK   85  A    between atoms: _199  and  _200
REMARK   86  A    between atoms: _199  and  _202
REMARK   87  A    between atoms: _202  and  _203
REMARK   88  A    between atoms: _207  and  _208
REMARK   89  A    between atoms: _213  and  _215
REMARK   90  A    between atoms: _215  and  _216
REMARK   91  A    between atoms: _215  and  _218
REMARK   92  A    between atoms: _221  and  _223
REMARK   93  A    between atoms: _223  and  _224
REMARK   94  A    between atoms: _223  and  _226
REMARK   95  A    between atoms: _226  and  _227
REMARK   96  A    between atoms: _232  and  _234
REMARK   97  A    between atoms: _234  and  _235
REMARK   98  A    between atoms: _234  and  _237
REMARK   99  A    between atoms: _237  and  _238
REMARK  100  A    between atoms: _241  and  _243
REMARK  101  A    between atoms: _243  and  _244
REMARK  102  A    between atoms: _243  and  _246
REMARK  103  A    between atoms: _246  and  _247
REMARK  104  A    between atoms: _250  and  _252
REMARK  105  A    between atoms: _252  and  _253
REMARK  106  A    between atoms: _255  and  _257
REMARK  107  A    between atoms: _257  and  _258
REMARK  108  A    between atoms: _257  and  _260
REMARK  109  A    between atoms: _260  and  _261
REMARK  110  A    between atoms: _261  and  _262
REMARK  111  A    between atoms: _262  and  _263
REMARK  112  A    between atoms: _272  and  _274
REMARK  113  A    between atoms: _274  and  _275
REMARK  114  A    between atoms: _274  and  _277
REMARK  115  A    between atoms: _277  and  _278
REMARK  116  A    between atoms: _283  and  _285
REMARK  117  A    between atoms: _285  and  _286
REMARK  118  A    between atoms: _285  and  _288
REMARK  119  A    between atoms: _288  and  _289
REMARK  120  A    between atoms: _289  and  _290
REMARK  121  A    between atoms: _290  and  _291
REMARK  122  A    between atoms: _300  and  _302
REMARK  123  A    between atoms: _302  and  _303
REMARK  124  A    between atoms: _302  and  _305
REMARK  125  A    between atoms: _305  and  _306
REMARK  126  A    between atoms: _309  and  _311
REMARK  127  A    between atoms: _311  and  _312
REMARK  128  A    between atoms: _311  and  _314
REMARK  129  A    between atoms: _314  and  _315
REMARK  130  A    between atoms: _318  and  _320
REMARK  131  A    between atoms: _320  and  _321
REMARK  132  A    between atoms: _320  and  _323
REMARK  133  A    between atoms: _323  and  _324
REMARK  134  A    between atoms: _327  and  _329
REMARK  135  A    between atoms: _329  and  _330
REMARK  136  A    between atoms: _329  and  _332
REMARK  137  A    between atoms: _332  and  _333
REMARK  138  A    between atoms: _336  and  _338
REMARK  139  A    between atoms: _338  and  _339
REMARK  140  A    between atoms: _341  and  _343
REMARK  141  A    between atoms: _343  and  _344
REMARK  142  A    between atoms: _347  and  _349
REMARK  143  A    between atoms: _349  and  _350
REMARK  144  A    between atoms: _349  and  _352
REMARK  145  A    between atoms: _352  and  _353
REMARK  146  A    between atoms: _356  and  _358
REMARK  147  A    between atoms: _358  and  _359
REMARK  148  A    between atoms: _358  and  _361
REMARK  149  A    between atoms: _361  and  _362
REMARK  150  A    between atoms: _365  and  _367
REMARK  151  A    between atoms: _367  and  _368
REMARK  152  A    between atoms: _367  and  _370
REMARK  153  A    between atoms: _370  and  _371
REMARK  154  A    between atoms: _374  and  _376
REMARK  155  A    between atoms: _376  and  _377
REMARK  156  A    between atoms: _376  and  _379
REMARK  157  A    between atoms: _382  and  _384
REMARK  158  A    between atoms: _384  and  _385
REMARK  159  A    between atoms: _384  and  _387
REMARK  160  A    between atoms: _387  and  _388
REMARK  161  A    between atoms: _388  and  _389
REMARK  162  A    between atoms: _389  and  _390
REMARK  163  A    between atoms: _390  and  _391
REMARK  164  A    between atoms: _395  and  _397
REMARK  165  A    between atoms: _397  and  _398
REMARK  166  A    between atoms: _397  and  _400
REMARK  167  A    between atoms: _400  and  _401
REMARK  168  A    between atoms: _401  and  _402
REMARK  169  A    between atoms: _404  and  _406
REMARK  170  A    between atoms: _406  and  _407
REMARK  171  A    between atoms: _406  and  _409
REMARK  172  A    between atoms: _409  and  _410
REMARK  173  A    between atoms: _413  and  _415
REMARK  174  A    between atoms: _415  and  _416
REMARK  175  A    between atoms: _418  and  _420
REMARK  176  A    between atoms: _420  and  _421
REMARK  177  A    between atoms: _423  and  _425
REMARK  178  A    between atoms: _425  and  _426
REMARK  179  A    between atoms: _425  and  _428
REMARK  180  A    between atoms: _431  and  _433
REMARK  181  A    between atoms: _433  and  _434
REMARK  182  A    between atoms: _436  and  _438
REMARK  183  A    between atoms: _438  and  _439
REMARK  184  A    between atoms: _441  and  _443
REMARK  185  A    between atoms: _443  and  _444
REMARK  186  A    between atoms: _443  and  _446
REMARK  187  A    between atoms: _446  and  _447
REMARK  188  A    between atoms: _453  and  _455
REMARK  189  A    between atoms: _455  and  _456
REMARK  190  A    between atoms: _455  and  _458
REMARK  191  A    between atoms: _458  and  _459
REMARK  192  A    between atoms: _462  and  _464
REMARK  193  A    between atoms: _464  and  _465
REMARK  194  A    between atoms: _464  and  _467
REMARK  195  A    between atoms: _470  and  _472
REMARK  196  A    between atoms: _472  and  _473
REMARK  197  A    between atoms: _472  and  _475
REMARK  198  A    between atoms: _475  and  _476
REMARK  199  A    between atoms: _480  and  _481
REMARK  200  A    between atoms: _486  and  _488
REMARK  201  A    between atoms: _488  and  _489
REMARK  202  A    between atoms: _488  and  _491
REMARK  203  A    between atoms: _491  and  _492
REMARK  204  A    between atoms: _496  and  _497
REMARK  205  A    between atoms: _502  and  _504
REMARK  206  A    between atoms: _504  and  _505
REMARK  207  A    between atoms: _504  and  _507
REMARK  208  A    between atoms: _510  and  _512
REMARK  209  A    between atoms: _512  and  _513
REMARK  210  A    between atoms: _512  and  _515
REMARK  211  A    between atoms: _515  and  _516
REMARK  212  A    between atoms: _521  and  _523
REMARK  213  A    between atoms: _523  and  _524
REMARK  214  A    between atoms: _523  and  _526
REMARK  215  A    between atoms: _526  and  _527
REMARK  216  A    between atoms: _530  and  _532
REMARK  217  A    between atoms: _532  and  _533
REMARK  218  A    between atoms: _532  and  _535
REMARK  219  A    between atoms: _535  and  _536
REMARK  220  A    between atoms: _539  and  _541
REMARK  221  A    between atoms: _541  and  _542
REMARK  222  A    between atoms: _544  and  _546
REMARK  223  A    between atoms: _546  and  _547
REMARK  224  A    between atoms: _546  and  _549
REMARK  225  A    between atoms: _549  and  _550
REMARK  226  A    between atoms: _550  and  _551
REMARK  227  A    between atoms: _551  and  _552
REMARK  228  A    between atoms: _561  and  _563
REMARK  229  A    between atoms: _563  and  _564
REMARK  230  A    between atoms: _563  and  _566
REMARK  231  A    between atoms: _566  and  _567
REMARK                            x       y       z     vdW  Elec       q    Type
REMARK                         _______ _______ _______ _____ _____    ______ ____
ROOT
ATOM      1  O   HOH     1     -18.224  22.693 -18.007  0.00  0.00    +0.000 OA
ENDROOT
TORSDOF 0
REMARK  Name = ../refined-set-2016/2r3t/2r3t_pocket.pdb
REMARK  231 active torsions:
REMARK  status: ('A' for Active; 'I' for Inactive)
REMARK    1  A    between atoms: _1  and  _3
REMARK    2  A    between atoms: _3  and  _4
REMARK    3  A    between atoms: _3  and  _6
REMARK    4  A    between atoms: _6  and  _7
REMARK    5  A    between atoms: _7  and  _8
REMARK    6  A    between atoms: _8  and  _9
REMARK    7  A    between atoms: _18  and  _20
REMARK    8  A    between atoms: _20  and  _21
REMARK    9  A    between atoms: _20  and  _23
REMARK   10  A    between atoms: _23  and  _24
REMARK   11  A    between atoms: _27  and  _29
REMARK   12  A    between atoms: _29  and  _30
REMARK   13  A    between atoms: _29  and  _32
REMARK   14  A    between atoms: _32  and  _33
REMARK   15  A    between atoms: _36  and  _38
REMARK   16  A    between atoms: _38  and  _39
REMARK   17  A    between atoms: _38  and  _41
REMARK   18  A    between atoms: _41  and  _42
REMARK   19  A    between atoms: _45  and  _47
REMARK   20  A    between atoms: _47  and  _48
REMARK   21  A    between atoms: _47  and  _50
REMARK   22  A    between atoms: _50  and  _51
REMARK   23  A    between atoms: _54  and  _56
REMARK   24  A    between atoms: _56  and  _57
REMARK   25  A    between atoms: _59  and  _61
REMARK   26  A    between atoms: _61  and  _62
REMARK   27  A    between atoms: _65  and  _67
REMARK   28  A    between atoms: _67  and  _68
REMARK   29  A    between atoms: _67  and  _70
REMARK   30  A    between atoms: _70  and  _71
REMARK   31  A    between atoms: _74  and  _76
REMARK   32  A    between atoms: _76  and  _77
REMARK   33  A    between atoms: _76  and  _79
REMARK   34  A    between atoms: _79  and  _80
REMARK   35  A    between atoms: _83  and  _85
REMARK   36  A    between atoms: _85  and  _86
REMARK   37  A    between atoms: _85  and  _88
REMARK   38  A    between atoms: _88  and  _89
REMARK   39  A    between atoms: _92  and  _94
REMARK   40  A    between atoms: _94  and  _95
REMARK   41  A    between atoms: _94  and  _97
REMARK   42  A    between atoms: _100  and  _102
REMARK   43  A    between atoms: _102  and  _103
REMARK   44  A    between atoms: _102  and  _105
REMARK   45  A    between atoms: _105  and  _106
REMARK   46  A    between atoms: _106  and  _107
REMARK   47  A    between atoms: _107  and  _108
REMARK   48  A    between atoms: _108  and  _109
REMARK   49  A    between atoms: _113  and  _115
REMARK   50  A    between atoms: _115  and  _116
REMARK   51  A    between atoms: _115  and  _118
REMARK   52  A    between atoms: _118  and  _119
REMARK   53  A    between atoms: _119  and  _120
REMARK   54  A    between atoms: _122  and  _124
REMARK   55  A    between atoms: _124  and  _125
REMARK   56  A    between atoms: _124  and  _127
REMARK   57  A    between atoms: _127  and  _128
REMARK   58  A    between atoms: _131  and  _133
REMARK   59  A    between atoms: _133  and  _134
REMARK   60  A    between atoms: _136  and  _138
REMARK   61  A    between atoms: _138  and  _139
REMARK   62  A    between atoms: _141  and  _143
REMARK   63  A    between atoms: _143  and  _144
REMARK   64  A    between atoms: _143  and  _146
REMARK   65  A    between atoms: _149  and  _151
REMARK   66  A    between atoms: _151  and  _152
REMARK   67  A    between atoms: _154  and  _156
REMARK   68  A    between atoms: _156  and  _157
REMARK   69  A    between atoms: _159  and  _161
REMARK   70  A    between atoms: _161  and  _162
REMARK   71  A    between atoms: _161  and  _164
REMARK   72  A    between atoms: _164  and  _165
REMARK   73  A    between atoms: _171  and  _173
REMARK   74  A    between atoms: _173  and  _174
REMARK   75  A    between atoms: _173  and  _176
REMARK   76  A    between atoms: _176  and  _177
REMARK   77  A    between atoms: _180  and  _182
REMARK   78  A    between atoms: _182  and  _183
REMARK   79  A    between atoms: _182  and  _185
REMARK   80  A    between atoms: _188  and  _190
REMARK   81  A    between atoms: _190  and  _191
REMARK   82  A    between atoms: _190  and  _193
REMARK   83  A    between atoms: _193  and  _194
REMARK   84  A    between atoms: _197  and  _199
REMARK   85  A    between atoms: _199  and  _200
REMARK   86  A    between atoms: _199  and  _202
REMARK   87  A    between atoms: _202  and  _203
REMARK   88  A    between atoms: _207  and  _208
REMARK   89  A    between atoms: _213  and  _215
REMARK   90  A    between atoms: _215  and  _216
REMARK   91  A    between atoms: _215  and  _218
REMARK   92  A    between atoms: _221  and  _223
REMARK   93  A    between atoms: _223  and  _224
REMARK   94  A    between atoms: _223  and  _226
REMARK   95  A    between atoms: _226  and  _227
REMARK   96  A    between atoms: _232  and  _234
REMARK   97  A    between atoms: _234  and  _235
REMARK   98  A    between atoms: _234  and  _237
REMARK   99  A    between atoms: _237  and  _238
REMARK  100  A    between atoms: _241  and  _243
REMARK  101  A    between atoms: _243  and  _244
REMARK  102  A    between atoms: _243  and  _246
REMARK  103  A    between atoms: _246  and  _247
REMARK  104  A    between atoms: _250  and  _252
REMARK  105  A    between atoms: _252  and  _253
REMARK  106  A    between atoms: _255  and  _257
REMARK  107  A    between atoms: _257  and  _258
REMARK  108  A    between atoms: _257  and  _260
REMARK  109  A    between atoms: _260  and  _261
REMARK  110  A    between atoms: _261  and  _262
REMARK  111  A    between atoms: _262  and  _263
REMARK  112  A    between atoms: _272  and  _274
REMARK  113  A    between atoms: _274  and  _275
REMARK  114  A    between atoms: _274  and  _277
REMARK  115  A    between atoms: _277  and  _278
REMARK  116  A    between atoms: _283  and  _285
REMARK  117  A    between atoms: _285  and  _286
REMARK  118  A    between atoms: _285  and  _288
REMARK  119  A    between atoms: _288  and  _289
REMARK  120  A    between atoms: _289  and  _290
REMARK  121  A    between atoms: _290  and  _291
REMARK  122  A    between atoms: _300  and  _302
REMARK  123  A    between atoms: _302  and  _303
REMARK  124  A    between atoms: _302  and  _305
REMARK  125  A    between atoms: _305  and  _306
REMARK  126  A    between atoms: _309  and  _311
REMARK  127  A    between atoms: _311  and  _312
REMARK  128  A    between atoms: _311  and  _314
REMARK  129  A    between atoms: _314  and  _315
REMARK  130  A    between atoms: _318  and  _320
REMARK  131  A    between atoms: _320  and  _321
REMARK  132  A    between atoms: _320  and  _323
REMARK  133  A    between atoms: _323  and  _324
REMARK  134  A    between atoms: _327  and  _329
REMARK  135  A    between atoms: _329  and  _330
REMARK  136  A    between atoms: _329  and  _332
REMARK  137  A    between atoms: _332  and  _333
REMARK  138  A    between atoms: _336  and  _338
REMARK  139  A    between atoms: _338  and  _339
REMARK  140  A    between atoms: _341  and  _343
REMARK  141  A    between atoms: _343  and  _344
REMARK  142  A    between atoms: _347  and  _349
REMARK  143  A    between atoms: _349  and  _350
REMARK  144  A    between atoms: _349  and  _352
REMARK  145  A    between atoms: _352  and  _353
REMARK  146  A    between atoms: _356  and  _358
REMARK  147  A    between atoms: _358  and  _359
REMARK  148  A    between atoms: _358  and  _361
REMARK  149  A    between atoms: _361  and  _362
REMARK  150  A    between atoms: _365  and  _367
REMARK  151  A    between atoms: _367  and  _368
REMARK  152  A    between atoms: _367  and  _370
REMARK  153  A    between atoms: _370  and  _371
REMARK  154  A    between atoms: _374  and  _376
REMARK  155  A    between atoms: _376  and  _377
REMARK  156  A    between atoms: _376  and  _379
REMARK  157  A    between atoms: _382  and  _384
REMARK  158  A    between atoms: _384  and  _385
REMARK  159  A    between atoms: _384  and  _387
REMARK  160  A    between atoms: _387  and  _388
REMARK  161  A    between atoms: _388  and  _389
REMARK  162  A    between atoms: _389  and  _390
REMARK  163  A    between atoms: _390  and  _391
REMARK  164  A    between atoms: _395  and  _397
REMARK  165  A    between atoms: _397  and  _398
REMARK  166  A    between atoms: _397  and  _400
REMARK  167  A    between atoms: _400  and  _401
REMARK  168  A    between atoms: _401  and  _402
REMARK  169  A    between atoms: _404  and  _406
REMARK  170  A    between atoms: _406  and  _407
REMARK  171  A    between atoms: _406  and  _409
REMARK  172  A    between atoms: _409  and  _410
REMARK  173  A    between atoms: _413  and  _415
REMARK  174  A    between atoms: _415  and  _416
REMARK  175  A    between atoms: _418  and  _420
REMARK  176  A    between atoms: _420  and  _421
REMARK  177  A    between atoms: _423  and  _425
REMARK  178  A    between atoms: _425  and  _426
REMARK  179  A    between atoms: _425  and  _428
REMARK  180  A    between atoms: _431  and  _433
REMARK  181  A    between atoms: _433  and  _434
REMARK  182  A    between atoms: _436  and  _438
REMARK  183  A    between atoms: _438  and  _439
REMARK  184  A    between atoms: _441  and  _443
REMARK  185  A    between atoms: _443  and  _444
REMARK  186  A    between atoms: _443  and  _446
REMARK  187  A    between atoms: _446  and  _447
REMARK  188  A    between atoms: _453  and  _455
REMARK  189  A    between atoms: _455  and  _456
REMARK  190  A    between atoms: _455  and  _458
REMARK  191  A    between atoms: _458  and  _459
REMARK  192  A    between atoms: _462  and  _464
REMARK  193  A    between atoms: _464  and  _465
REMARK  194  A    between atoms: _464  and  _467
REMARK  195  A    between atoms: _470  and  _472
REMARK  196  A    between atoms: _472  and  _473
REMARK  197  A    between atoms: _472  and  _475
REMARK  198  A    between atoms: _475  and  _476
REMARK  199  A    between atoms: _480  and  _481
REMARK  200  A    between atoms: _486  and  _488
REMARK  201  A    between atoms: _488  and  _489
REMARK  202  A    between atoms: _488  and  _491
REMARK  203  A    between atoms: _491  and  _492
REMARK  204  A    between atoms: _496  and  _497
REMARK  205  A    between atoms: _502  and  _504
REMARK  206  A    between atoms: _504  and  _505
REMARK  207  A    between atoms: _504  and  _507
REMARK  208  A    between atoms: _510  and  _512
REMARK  209  A    between atoms: _512  and  _513
REMARK  210  A    between atoms: _512  and  _515
REMARK  211  A    between atoms: _515  and  _516
REMARK  212  A    between atoms: _521  and  _523
REMARK  213  A    between atoms: _523  and  _524
REMARK  214  A    between atoms: _523  and  _526
REMARK  215  A    between atoms: _526  and  _527
REMARK  216  A    between atoms: _530  and  _532
REMARK  217  A    between atoms: _532  and  _533
REMARK  218  A    between atoms: _532  and  _535
REMARK  219  A    between atoms: _535  and  _536
REMARK  220  A    between atoms: _539  and  _541
REMARK  221  A    between atoms: _541  and  _542
REMARK  222  A    between atoms: _544  and  _546
REMARK  223  A    between atoms: _546  and  _547
REMARK  224  A    between atoms: _546  and  _549
REMARK  225  A    between atoms: _549  and  _550
REMARK  226  A    between atoms: _550  and  _551
REMARK  227  A    between atoms: _551  and  _552
REMARK  228  A    between atoms: _561  and  _563
REMARK  229  A    between atoms: _563  and  _564
REMARK  230  A    between atoms: _563  and  _566
REMARK  231  A    between atoms: _566  and  _567
REMARK                            x       y       z     vdW  Elec       q    Type
REMARK                         _______ _______ _______ _____ _____    ______ ____
ROOT
ATOM      1  O   HOH     1     -19.534  26.525 -27.240  0.00  0.00    +0.000 OA
ENDROOT
TORSDOF 0
REMARK  Name = ../refined-set-2016/2r3t/2r3t_pocket.pdb
REMARK  231 active torsions:
REMARK  status: ('A' for Active; 'I' for Inactive)
REMARK    1  A    between atoms: _1  and  _3
REMARK    2  A    between atoms: _3  and  _4
REMARK    3  A    between atoms: _3  and  _6
REMARK    4  A    between atoms: _6  and  _7
REMARK    5  A    between atoms: _7  and  _8
REMARK    6  A    between atoms: _8  and  _9
REMARK    7  A    between atoms: _18  and  _20
REMARK    8  A    between atoms: _20  and  _21
REMARK    9  A    between atoms: _20  and  _23
REMARK   10  A    between atoms: _23  and  _24
REMARK   11  A    between atoms: _27  and  _29
REMARK   12  A    between atoms: _29  and  _30
REMARK   13  A    between atoms: _29  and  _32
REMARK   14  A    between atoms: _32  and  _33
REMARK   15  A    between atoms: _36  and  _38
REMARK   16  A    between atoms: _38  and  _39
REMARK   17  A    between atoms: _38  and  _41
REMARK   18  A    between atoms: _41  and  _42
REMARK   19  A    between atoms: _45  and  _47
REMARK   20  A    between atoms: _47  and  _48
REMARK   21  A    between atoms: _47  and  _50
REMARK   22  A    between atoms: _50  and  _51
REMARK   23  A    between atoms: _54  and  _56
REMARK   24  A    between atoms: _56  and  _57
REMARK   25  A    between atoms: _59  and  _61
REMARK   26  A    between atoms: _61  and  _62
REMARK   27  A    between atoms: _65  and  _67
REMARK   28  A    between atoms: _67  and  _68
REMARK   29  A    between atoms: _67  and  _70
REMARK   30  A    between atoms: _70  and  _71
REMARK   31  A    between atoms: _74  and  _76
REMARK   32  A    between atoms: _76  and  _77
REMARK   33  A    between atoms: _76  and  _79
REMARK   34  A    between atoms: _79  and  _80
REMARK   35  A    between atoms: _83  and  _85
REMARK   36  A    between atoms: _85  and  _86
REMARK   37  A    between atoms: _85  and  _88
REMARK   38  A    between atoms: _88  and  _89
REMARK   39  A    between atoms: _92  and  _94
REMARK   40  A    between atoms: _94  and  _95
REMARK   41  A    between atoms: _94  and  _97
REMARK   42  A    between atoms: _100  and  _102
REMARK   43  A    between atoms: _102  and  _103
REMARK   44  A    between atoms: _102  and  _105
REMARK   45  A    between atoms: _105  and  _106
REMARK   46  A    between atoms: _106  and  _107
REMARK   47  A    between atoms: _107  and  _108
REMARK   48  A    between atoms: _108  and  _109
REMARK   49  A    between atoms: _113  and  _115
REMARK   50  A    between atoms: _115  and  _116
REMARK   51  A    between atoms: _115  and  _118
REMARK   52  A    between atoms: _118  and  _119
REMARK   53  A    between atoms: _119  and  _120
REMARK   54  A    between atoms: _122  and  _124
REMARK   55  A    between atoms: _124  and  _125
REMARK   56  A    between atoms: _124  and  _127
REMARK   57  A    between atoms: _127  and  _128
REMARK   58  A    between atoms: _131  and  _133
REMARK   59  A    between atoms: _133  and  _134
REMARK   60  A    between atoms: _136  and  _138
REMARK   61  A    between atoms: _138  and  _139
REMARK   62  A    between atoms: _141  and  _143
REMARK   63  A    between atoms: _143  and  _144
REMARK   64  A    between atoms: _143  and  _146
REMARK   65  A    between atoms: _149  and  _151
REMARK   66  A    between atoms: _151  and  _152
REMARK   67  A    between atoms: _154  and  _156
REMARK   68  A    between atoms: _156  and  _157
REMARK   69  A    between atoms: _159  and  _161
REMARK   70  A    between atoms: _161  and  _162
REMARK   71  A    between atoms: _161  and  _164
REMARK   72  A    between atoms: _164  and  _165
REMARK   73  A    between atoms: _171  and  _173
REMARK   74  A    between atoms: _173  and  _174
REMARK   75  A    between atoms: _173  and  _176
REMARK   76  A    between atoms: _176  and  _177
REMARK   77  A    between atoms: _180  and  _182
REMARK   78  A    between atoms: _182  and  _183
REMARK   79  A    between atoms: _182  and  _185
REMARK   80  A    between atoms: _188  and  _190
REMARK   81  A    between atoms: _190  and  _191
REMARK   82  A    between atoms: _190  and  _193
REMARK   83  A    between atoms: _193  and  _194
REMARK   84  A    between atoms: _197  and  _199
REMARK   85  A    between atoms: _199  and  _200
REMARK   86  A    between atoms: _199  and  _202
REMARK   87  A    between atoms: _202  and  _203
REMARK   88  A    between atoms: _207  and  _208
REMARK   89  A    between atoms: _213  and  _215
REMARK   90  A    between atoms: _215  and  _216
REMARK   91  A    between atoms: _215  and  _218
REMARK   92  A    between atoms: _221  and  _223
REMARK   93  A    between atoms: _223  and  _224
REMARK   94  A    between atoms: _223  and  _226
REMARK   95  A    between atoms: _226  and  _227
REMARK   96  A    between atoms: _232  and  _234
REMARK   97  A    between atoms: _234  and  _235
REMARK   98  A    between atoms: _234  and  _237
REMARK   99  A    between atoms: _237  and  _238
REMARK  100  A    between atoms: _241  and  _243
REMARK  101  A    between atoms: _243  and  _244
REMARK  102  A    between atoms: _243  and  _246
REMARK  103  A    between atoms: _246  and  _247
REMARK  104  A    between atoms: _250  and  _252
REMARK  105  A    between atoms: _252  and  _253
REMARK  106  A    between atoms: _255  and  _257
REMARK  107  A    between atoms: _257  and  _258
REMARK  108  A    between atoms: _257  and  _260
REMARK  109  A    between atoms: _260  and  _261
REMARK  110  A    between atoms: _261  and  _262
REMARK  111  A    between atoms: _262  and  _263
REMARK  112  A    between atoms: _272  and  _274
REMARK  113  A    between atoms: _274  and  _275
REMARK  114  A    between atoms: _274  and  _277
REMARK  115  A    between atoms: _277  and  _278
REMARK  116  A    between atoms: _283  and  _285
REMARK  117  A    between atoms: _285  and  _286
REMARK  118  A    between atoms: _285  and  _288
REMARK  119  A    between atoms: _288  and  _289
REMARK  120  A    between atoms: _289  and  _290
REMARK  121  A    between atoms: _290  and  _291
REMARK  122  A    between atoms: _300  and  _302
REMARK  123  A    between atoms: _302  and  _303
REMARK  124  A    between atoms: _302  and  _305
REMARK  125  A    between atoms: _305  and  _306
REMARK  126  A    between atoms: _309  and  _311
REMARK  127  A    between atoms: _311  and  _312
REMARK  128  A    between atoms: _311  and  _314
REMARK  129  A    between atoms: _314  and  _315
REMARK  130  A    between atoms: _318  and  _320
REMARK  131  A    between atoms: _320  and  _321
REMARK  132  A    between atoms: _320  and  _323
REMARK  133  A    between atoms: _323  and  _324
REMARK  134  A    between atoms: _327  and  _329
REMARK  135  A    between atoms: _329  and  _330
REMARK  136  A    between atoms: _329  and  _332
REMARK  137  A    between atoms: _332  and  _333
REMARK  138  A    between atoms: _336  and  _338
REMARK  139  A    between atoms: _338  and  _339
REMARK  140  A    between atoms: _341  and  _343
REMARK  141  A    between atoms: _343  and  _344
REMARK  142  A    between atoms: _347  and  _349
REMARK  143  A    between atoms: _349  and  _350
REMARK  144  A    between atoms: _349  and  _352
REMARK  145  A    between atoms: _352  and  _353
REMARK  146  A    between atoms: _356  and  _358
REMARK  147  A    between atoms: _358  and  _359
REMARK  148  A    between atoms: _358  and  _361
REMARK  149  A    between atoms: _361  and  _362
REMARK  150  A    between atoms: _365  and  _367
REMARK  151  A    between atoms: _367  and  _368
REMARK  152  A    between atoms: _367  and  _370
REMARK  153  A    between atoms: _370  and  _371
REMARK  154  A    between atoms: _374  and  _376
REMARK  155  A    between atoms: _376  and  _377
REMARK  156  A    between atoms: _376  and  _379
REMARK  157  A    between atoms: _382  and  _384
REMARK  158  A    between atoms: _384  and  _385
REMARK  159  A    between atoms: _384  and  _387
REMARK  160  A    between atoms: _387  and  _388
REMARK  161  A    between atoms: _388  and  _389
REMARK  162  A    between atoms: _389  and  _390
REMARK  163  A    between atoms: _390  and  _391
REMARK  164  A    between atoms: _395  and  _397
REMARK  165  A    between atoms: _397  and  _398
REMARK  166  A    between atoms: _397  and  _400
REMARK  167  A    between atoms: _400  and  _401
REMARK  168  A    between atoms: _401  and  _402
REMARK  169  A    between atoms: _404  and  _406
REMARK  170  A    between atoms: _406  and  _407
REMARK  171  A    between atoms: _406  and  _409
REMARK  172  A    between atoms: _409  and  _410
REMARK  173  A    between atoms: _413  and  _415
REMARK  174  A    between atoms: _415  and  _416
REMARK  175  A    between atoms: _418  and  _420
REMARK  176  A    between atoms: _420  and  _421
REMARK  177  A    between atoms: _423  and  _425
REMARK  178  A    between atoms: _425  and  _426
REMARK  179  A    between atoms: _425  and  _428
REMARK  180  A    between atoms: _431  and  _433
REMARK  181  A    between atoms: _433  and  _434
REMARK  182  A    between atoms: _436  and  _438
REMARK  183  A    between atoms: _438  and  _439
REMARK  184  A    between atoms: _441  and  _443
REMARK  185  A    between atoms: _443  and  _444
REMARK  186  A    between atoms: _443  and  _446
REMARK  187  A    between atoms: _446  and  _447
REMARK  188  A    between atoms: _453  and  _455
REMARK  189  A    between atoms: _455  and  _456
REMARK  190  A    between atoms: _455  and  _458
REMARK  191  A    between atoms: _458  and  _459
REMARK  192  A    between atoms: _462  and  _464
REMARK  193  A    between atoms: _464  and  _465
REMARK  194  A    between atoms: _464  and  _467
REMARK  195  A    between atoms: _470  and  _472
REMARK  196  A    between atoms: _472  and  _473
REMARK  197  A    between atoms: _472  and  _475
REMARK  198  A    between atoms: _475  and  _476
REMARK  199  A    between atoms: _480  and  _481
REMARK  200  A    between atoms: _486  and  _488
REMARK  201  A    between atoms: _488  and  _489
REMARK  202  A    between atoms: _488  and  _491
REMARK  203  A    between atoms: _491  and  _492
REMARK  204  A    between atoms: _496  and  _497
REMARK  205  A    between atoms: _502  and  _504
REMARK  206  A    between atoms: _504  and  _505
REMARK  207  A    between atoms: _504  and  _507
REMARK  208  A    between atoms: _510  and  _512
REMARK  209  A    between atoms: _512  and  _513
REMARK  210  A    between atoms: _512  and  _515
REMARK  211  A    between atoms: _515  and  _516
REMARK  212  A    between atoms: _521  and  _523
REMARK  213  A    between atoms: _523  and  _524
REMARK  214  A    between atoms: _523  and  _526
REMARK  215  A    between atoms: _526  and  _527
REMARK  216  A    between atoms: _530  and  _532
REMARK  217  A    between atoms: _532  and  _533
REMARK  218  A    between atoms: _532  and  _535
REMARK  219  A    between atoms: _535  and  _536
REMARK  220  A    between atoms: _539  and  _541
REMARK  221  A    between atoms: _541  and  _542
REMARK  222  A    between atoms: _544  and  _546
REMARK  223  A    between atoms: _546  and  _547
REMARK  224  A    between atoms: _546  and  _549
REMARK  225  A    between atoms: _549  and  _550
REMARK  226  A    between atoms: _550  and  _551
REMARK  227  A    between atoms: _551  and  _552
REMARK  228  A    between atoms: _561  and  _563
REMARK  229  A    between atoms: _563  and  _564
REMARK  230  A    between atoms: _563  and  _566
REMARK  231  A    between atoms: _566  and  _567
REMARK                            x       y       z     vdW  Elec       q    Type
REMARK                         _______ _______ _______ _____ _____    ______ ____
ROOT
ATOM      1  O   HOH     1     -21.143  19.019 -18.532  0.00  0.00    +0.000 OA
ENDROOT
TORSDOF 0
REMARK  Name = ../refined-set-2016/2r3t/2r3t_pocket.pdb
REMARK  231 active torsions:
REMARK  status: ('A' for Active; 'I' for Inactive)
REMARK    1  A    between atoms: _1  and  _3
REMARK    2  A    between atoms: _3  and  _4
REMARK    3  A    between atoms: _3  and  _6
REMARK    4  A    between atoms: _6  and  _7
REMARK    5  A    between atoms: _7  and  _8
REMARK    6  A    between atoms: _8  and  _9
REMARK    7  A    between atoms: _18  and  _20
REMARK    8  A    between atoms: _20  and  _21
REMARK    9  A    between atoms: _20  and  _23
REMARK   10  A    between atoms: _23  and  _24
REMARK   11  A    between atoms: _27  and  _29
REMARK   12  A    between atoms: _29  and  _30
REMARK   13  A    between atoms: _29  and  _32
REMARK   14  A    between atoms: _32  and  _33
REMARK   15  A    between atoms: _36  and  _38
REMARK   16  A    between atoms: _38  and  _39
REMARK   17  A    between atoms: _38  and  _41
REMARK   18  A    between atoms: _41  and  _42
REMARK   19  A    between atoms: _45  and  _47
REMARK   20  A    between atoms: _47  and  _48
REMARK   21  A    between atoms: _47  and  _50
REMARK   22  A    between atoms: _50  and  _51
REMARK   23  A    between atoms: _54  and  _56
REMARK   24  A    between atoms: _56  and  _57
REMARK   25  A    between atoms: _59  and  _61
REMARK   26  A    between atoms: _61  and  _62
REMARK   27  A    between atoms: _65  and  _67
REMARK   28  A    between atoms: _67  and  _68
REMARK   29  A    between atoms: _67  and  _70
REMARK   30  A    between atoms: _70  and  _71
REMARK   31  A    between atoms: _74  and  _76
REMARK   32  A    between atoms: _76  and  _77
REMARK   33  A    between atoms: _76  and  _79
REMARK   34  A    between atoms: _79  and  _80
REMARK   35  A    between atoms: _83  and  _85
REMARK   36  A    between atoms: _85  and  _86
REMARK   37  A    between atoms: _85  and  _88
REMARK   38  A    between atoms: _88  and  _89
REMARK   39  A    between atoms: _92  and  _94
REMARK   40  A    between atoms: _94  and  _95
REMARK   41  A    between atoms: _94  and  _97
REMARK   42  A    between atoms: _100  and  _102
REMARK   43  A    between atoms: _102  and  _103
REMARK   44  A    between atoms: _102  and  _105
REMARK   45  A    between atoms: _105  and  _106
REMARK   46  A    between atoms: _106  and  _107
REMARK   47  A    between atoms: _107  and  _108
REMARK   48  A    between atoms: _108  and  _109
REMARK   49  A    between atoms: _113  and  _115
REMARK   50  A    between atoms: _115  and  _116
REMARK   51  A    between atoms: _115  and  _118
REMARK   52  A    between atoms: _118  and  _119
REMARK   53  A    between atoms: _119  and  _120
REMARK   54  A    between atoms: _122  and  _124
REMARK   55  A    between atoms: _124  and  _125
REMARK   56  A    between atoms: _124  and  _127
REMARK   57  A    between atoms: _127  and  _128
REMARK   58  A    between atoms: _131  and  _133
REMARK   59  A    between atoms: _133  and  _134
REMARK   60  A    between atoms: _136  and  _138
REMARK   61  A    between atoms: _138  and  _139
REMARK   62  A    between atoms: _141  and  _143
REMARK   63  A    between atoms: _143  and  _144
REMARK   64  A    between atoms: _143  and  _146
REMARK   65  A    between atoms: _149  and  _151
REMARK   66  A    between atoms: _151  and  _152
REMARK   67  A    between atoms: _154  and  _156
REMARK   68  A    between atoms: _156  and  _157
REMARK   69  A    between atoms: _159  and  _161
REMARK   70  A    between atoms: _161  and  _162
REMARK   71  A    between atoms: _161  and  _164
REMARK   72  A    between atoms: _164  and  _165
REMARK   73  A    between atoms: _171  and  _173
REMARK   74  A    between atoms: _173  and  _174
REMARK   75  A    between atoms: _173  and  _176
REMARK   76  A    between atoms: _176  and  _177
REMARK   77  A    between atoms: _180  and  _182
REMARK   78  A    between atoms: _182  and  _183
REMARK   79  A    between atoms: _182  and  _185
REMARK   80  A    between atoms: _188  and  _190
REMARK   81  A    between atoms: _190  and  _191
REMARK   82  A    between atoms: _190  and  _193
REMARK   83  A    between atoms: _193  and  _194
REMARK   84  A    between atoms: _197  and  _199
REMARK   85  A    between atoms: _199  and  _200
REMARK   86  A    between atoms: _199  and  _202
REMARK   87  A    between atoms: _202  and  _203
REMARK   88  A    between atoms: _207  and  _208
REMARK   89  A    between atoms: _213  and  _215
REMARK   90  A    between atoms: _215  and  _216
REMARK   91  A    between atoms: _215  and  _218
REMARK   92  A    between atoms: _221  and  _223
REMARK   93  A    between atoms: _223  and  _224
REMARK   94  A    between atoms: _223  and  _226
REMARK   95  A    between atoms: _226  and  _227
REMARK   96  A    between atoms: _232  and  _234
REMARK   97  A    between atoms: _234  and  _235
REMARK   98  A    between atoms: _234  and  _237
REMARK   99  A    between atoms: _237  and  _238
REMARK  100  A    between atoms: _241  and  _243
REMARK  101  A    between atoms: _243  and  _244
REMARK  102  A    between atoms: _243  and  _246
REMARK  103  A    between atoms: _246  and  _247
REMARK  104  A    between atoms: _250  and  _252
REMARK  105  A    between atoms: _252  and  _253
REMARK  106  A    between atoms: _255  and  _257
REMARK  107  A    between atoms: _257  and  _258
REMARK  108  A    between atoms: _257  and  _260
REMARK  109  A    between atoms: _260  and  _261
REMARK  110  A    between atoms: _261  and  _262
REMARK  111  A    between atoms: _262  and  _263
REMARK  112  A    between atoms: _272  and  _274
REMARK  113  A    between atoms: _274  and  _275
REMARK  114  A    between atoms: _274  and  _277
REMARK  115  A    between atoms: _277  and  _278
REMARK  116  A    between atoms: _283  and  _285
REMARK  117  A    between atoms: _285  and  _286
REMARK  118  A    between atoms: _285  and  _288
REMARK  119  A    between atoms: _288  and  _289
REMARK  120  A    between atoms: _289  and  _290
REMARK  121  A    between atoms: _290  and  _291
REMARK  122  A    between atoms: _300  and  _302
REMARK  123  A    between atoms: _302  and  _303
REMARK  124  A    between atoms: _302  and  _305
REMARK  125  A    between atoms: _305  and  _306
REMARK  126  A    between atoms: _309  and  _311
REMARK  127  A    between atoms: _311  and  _312
REMARK  128  A    between atoms: _311  and  _314
REMARK  129  A    between atoms: _314  and  _315
REMARK  130  A    between atoms: _318  and  _320
REMARK  131  A    between atoms: _320  and  _321
REMARK  132  A    between atoms: _320  and  _323
REMARK  133  A    between atoms: _323  and  _324
REMARK  134  A    between atoms: _327  and  _329
REMARK  135  A    between atoms: _329  and  _330
REMARK  136  A    between atoms: _329  and  _332
REMARK  137  A    between atoms: _332  and  _333
REMARK  138  A    between atoms: _336  and  _338
REMARK  139  A    between atoms: _338  and  _339
REMARK  140  A    between atoms: _341  and  _343
REMARK  141  A    between atoms: _343  and  _344
REMARK  142  A    between atoms: _347  and  _349
REMARK  143  A    between atoms: _349  and  _350
REMARK  144  A    between atoms: _349  and  _352
REMARK  145  A    between atoms: _352  and  _353
REMARK  146  A    between atoms: _356  and  _358
REMARK  147  A    between atoms: _358  and  _359
REMARK  148  A    between atoms: _358  and  _361
REMARK  149  A    between atoms: _361  and  _362
REMARK  150  A    between atoms: _365  and  _367
REMARK  151  A    between atoms: _367  and  _368
REMARK  152  A    between atoms: _367  and  _370
REMARK  153  A    between atoms: _370  and  _371
REMARK  154  A    between atoms: _374  and  _376
REMARK  155  A    between atoms: _376  and  _377
REMARK  156  A    between atoms: _376  and  _379
REMARK  157  A    between atoms: _382  and  _384
REMARK  158  A    between atoms: _384  and  _385
REMARK  159  A    between atoms: _384  and  _387
REMARK  160  A    between atoms: _387  and  _388
REMARK  161  A    between atoms: _388  and  _389
REMARK  162  A    between atoms: _389  and  _390
REMARK  163  A    between atoms: _390  and  _391
REMARK  164  A    between atoms: _395  and  _397
REMARK  165  A    between atoms: _397  and  _398
REMARK  166  A    between atoms: _397  and  _400
REMARK  167  A    between atoms: _400  and  _401
REMARK  168  A    between atoms: _401  and  _402
REMARK  169  A    between atoms: _404  and  _406
REMARK  170  A    between atoms: _406  and  _407
REMARK  171  A    between atoms: _406  and  _409
REMARK  172  A    between atoms: _409  and  _410
REMARK  173  A    between atoms: _413  and  _415
REMARK  174  A    between atoms: _415  and  _416
REMARK  175  A    between atoms: _418  and  _420
REMARK  176  A    between atoms: _420  and  _421
REMARK  177  A    between atoms: _423  and  _425
REMARK  178  A    between atoms: _425  and  _426
REMARK  179  A    between atoms: _425  and  _428
REMARK  180  A    between atoms: _431  and  _433
REMARK  181  A    between atoms: _433  and  _434
REMARK  182  A    between atoms: _436  and  _438
REMARK  183  A    between atoms: _438  and  _439
REMARK  184  A    between atoms: _441  and  _443
REMARK  185  A    between atoms: _443  and  _444
REMARK  186  A    between atoms: _443  and  _446
REMARK  187  A    between atoms: _446  and  _447
REMARK  188  A    between atoms: _453  and  _455
REMARK  189  A    between atoms: _455  and  _456
REMARK  190  A    between atoms: _455  and  _458
REMARK  191  A    between atoms: _458  and  _459
REMARK  192  A    between atoms: _462  and  _464
REMARK  193  A    between atoms: _464  and  _465
REMARK  194  A    between atoms: _464  and  _467
REMARK  195  A    between atoms: _470  and  _472
REMARK  196  A    between atoms: _472  and  _473
REMARK  197  A    between atoms: _472  and  _475
REMARK  198  A    between atoms: _475  and  _476
REMARK  199  A    between atoms: _480  and  _481
REMARK  200  A    between atoms: _486  and  _488
REMARK  201  A    between atoms: _488  and  _489
REMARK  202  A    between atoms: _488  and  _491
REMARK  203  A    between atoms: _491  and  _492
REMARK  204  A    between atoms: _496  and  _497
REMARK  205  A    between atoms: _502  and  _504
REMARK  206  A    between atoms: _504  and  _505
REMARK  207  A    between atoms: _504  and  _507
REMARK  208  A    between atoms: _510  and  _512
REMARK  209  A    between atoms: _512  and  _513
REMARK  210  A    between atoms: _512  and  _515
REMARK  211  A    between atoms: _515  and  _516
REMARK  212  A    between atoms: _521  and  _523
REMARK  213  A    between atoms: _523  and  _524
REMARK  214  A    between atoms: _523  and  _526
REMARK  215  A    between atoms: _526  and  _527
REMARK  216  A    between atoms: _530  and  _532
REMARK  217  A    between atoms: _532  and  _533
REMARK  218  A    between atoms: _532  and  _535
REMARK  219  A    between atoms: _535  and  _536
REMARK  220  A    between atoms: _539  and  _541
REMARK  221  A    between atoms: _541  and  _542
REMARK  222  A    between atoms: _544  and  _546
REMARK  223  A    between atoms: _546  and  _547
REMARK  224  A    between atoms: _546  and  _549
REMARK  225  A    between atoms: _549  and  _550
REMARK  226  A    between atoms: _550  and  _551
REMARK  227  A    between atoms: _551  and  _552
REMARK  228  A    between atoms: _561  and  _563
REMARK  229  A    between atoms: _563  and  _564
REMARK  230  A    between atoms: _563  and  _566
REMARK  231  A    between atoms: _566  and  _567
REMARK                            x       y       z     vdW  Elec       q    Type
REMARK                         _______ _______ _______ _____ _____    ______ ____
ROOT
ATOM      1  O   HOH     1     -13.841  27.293 -12.319  0.00  0.00    +0.000 OA
ENDROOT
TORSDOF 0
REMARK  Name = ../refined-set-2016/2r3t/2r3t_pocket.pdb
REMARK  231 active torsions:
REMARK  status: ('A' for Active; 'I' for Inactive)
REMARK    1  A    between atoms: _1  and  _3
REMARK    2  A    between atoms: _3  and  _4
REMARK    3  A    between atoms: _3  and  _6
REMARK    4  A    between atoms: _6  and  _7
REMARK    5  A    between atoms: _7  and  _8
REMARK    6  A    between atoms: _8  and  _9
REMARK    7  A    between atoms: _18  and  _20
REMARK    8  A    between atoms: _20  and  _21
REMARK    9  A    between atoms: _20  and  _23
REMARK   10  A    between atoms: _23  and  _24
REMARK   11  A    between atoms: _27  and  _29
REMARK   12  A    between atoms: _29  and  _30
REMARK   13  A    between atoms: _29  and  _32
REMARK   14  A    between atoms: _32  and  _33
REMARK   15  A    between atoms: _36  and  _38
REMARK   16  A    between atoms: _38  and  _39
REMARK   17  A    between atoms: _38  and  _41
REMARK   18  A    between atoms: _41  and  _42
REMARK   19  A    between atoms: _45  and  _47
REMARK   20  A    between atoms: _47  and  _48
REMARK   21  A    between atoms: _47  and  _50
REMARK   22  A    between atoms: _50  and  _51
REMARK   23  A    between atoms: _54  and  _56
REMARK   24  A    between atoms: _56  and  _57
REMARK   25  A    between atoms: _59  and  _61
REMARK   26  A    between atoms: _61  and  _62
REMARK   27  A    between atoms: _65  and  _67
REMARK   28  A    between atoms: _67  and  _68
REMARK   29  A    between atoms: _67  and  _70
REMARK   30  A    between atoms: _70  and  _71
REMARK   31  A    between atoms: _74  and  _76
REMARK   32  A    between atoms: _76  and  _77
REMARK   33  A    between atoms: _76  and  _79
REMARK   34  A    between atoms: _79  and  _80
REMARK   35  A    between atoms: _83  and  _85
REMARK   36  A    between atoms: _85  and  _86
REMARK   37  A    between atoms: _85  and  _88
REMARK   38  A    between atoms: _88  and  _89
REMARK   39  A    between atoms: _92  and  _94
REMARK   40  A    between atoms: _94  and  _95
REMARK   41  A    between atoms: _94  and  _97
REMARK   42  A    between atoms: _100  and  _102
REMARK   43  A    between atoms: _102  and  _103
REMARK   44  A    between atoms: _102  and  _105
REMARK   45  A    between atoms: _105  and  _106
REMARK   46  A    between atoms: _106  and  _107
REMARK   47  A    between atoms: _107  and  _108
REMARK   48  A    between atoms: _108  and  _109
REMARK   49  A    between atoms: _113  and  _115
REMARK   50  A    between atoms: _115  and  _116
REMARK   51  A    between atoms: _115  and  _118
REMARK   52  A    between atoms: _118  and  _119
REMARK   53  A    between atoms: _119  and  _120
REMARK   54  A    between atoms: _122  and  _124
REMARK   55  A    between atoms: _124  and  _125
REMARK   56  A    between atoms: _124  and  _127
REMARK   57  A    between atoms: _127  and  _128
REMARK   58  A    between atoms: _131  and  _133
REMARK   59  A    between atoms: _133  and  _134
REMARK   60  A    between atoms: _136  and  _138
REMARK   61  A    between atoms: _138  and  _139
REMARK   62  A    between atoms: _141  and  _143
REMARK   63  A    between atoms: _143  and  _144
REMARK   64  A    between atoms: _143  and  _146
REMARK   65  A    between atoms: _149  and  _151
REMARK   66  A    between atoms: _151  and  _152
REMARK   67  A    between atoms: _154  and  _156
REMARK   68  A    between atoms: _156  and  _157
REMARK   69  A    between atoms: _159  and  _161
REMARK   70  A    between atoms: _161  and  _162
REMARK   71  A    between atoms: _161  and  _164
REMARK   72  A    between atoms: _164  and  _165
REMARK   73  A    between atoms: _171  and  _173
REMARK   74  A    between atoms: _173  and  _174
REMARK   75  A    between atoms: _173  and  _176
REMARK   76  A    between atoms: _176  and  _177
REMARK   77  A    between atoms: _180  and  _182
REMARK   78  A    between atoms: _182  and  _183
REMARK   79  A    between atoms: _182  and  _185
REMARK   80  A    between atoms: _188  and  _190
REMARK   81  A    between atoms: _190  and  _191
REMARK   82  A    between atoms: _190  and  _193
REMARK   83  A    between atoms: _193  and  _194
REMARK   84  A    between atoms: _197  and  _199
REMARK   85  A    between atoms: _199  and  _200
REMARK   86  A    between atoms: _199  and  _202
REMARK   87  A    between atoms: _202  and  _203
REMARK   88  A    between atoms: _207  and  _208
REMARK   89  A    between atoms: _213  and  _215
REMARK   90  A    between atoms: _215  and  _216
REMARK   91  A    between atoms: _215  and  _218
REMARK   92  A    between atoms: _221  and  _223
REMARK   93  A    between atoms: _223  and  _224
REMARK   94  A    between atoms: _223  and  _226
REMARK   95  A    between atoms: _226  and  _227
REMARK   96  A    between atoms: _232  and  _234
REMARK   97  A    between atoms: _234  and  _235
REMARK   98  A    between atoms: _234  and  _237
REMARK   99  A    between atoms: _237  and  _238
REMARK  100  A    between atoms: _241  and  _243
REMARK  101  A    between atoms: _243  and  _244
REMARK  102  A    between atoms: _243  and  _246
REMARK  103  A    between atoms: _246  and  _247
REMARK  104  A    between atoms: _250  and  _252
REMARK  105  A    between atoms: _252  and  _253
REMARK  106  A    between atoms: _255  and  _257
REMARK  107  A    between atoms: _257  and  _258
REMARK  108  A    between atoms: _257  and  _260
REMARK  109  A    between atoms: _260  and  _261
REMARK  110  A    between atoms: _261  and  _262
REMARK  111  A    between atoms: _262  and  _263
REMARK  112  A    between atoms: _272  and  _274
REMARK  113  A    between atoms: _274  and  _275
REMARK  114  A    between atoms: _274  and  _277
REMARK  115  A    between atoms: _277  and  _278
REMARK  116  A    between atoms: _283  and  _285
REMARK  117  A    between atoms: _285  and  _286
REMARK  118  A    between atoms: _285  and  _288
REMARK  119  A    between atoms: _288  and  _289
REMARK  120  A    between atoms: _289  and  _290
REMARK  121  A    between atoms: _290  and  _291
REMARK  122  A    between atoms: _300  and  _302
REMARK  123  A    between atoms: _302  and  _303
REMARK  124  A    between atoms: _302  and  _305
REMARK  125  A    between atoms: _305  and  _306
REMARK  126  A    between atoms: _309  and  _311
REMARK  127  A    between atoms: _311  and  _312
REMARK  128  A    between atoms: _311  and  _314
REMARK  129  A    between atoms: _314  and  _315
REMARK  130  A    between atoms: _318  and  _320
REMARK  131  A    between atoms: _320  and  _321
REMARK  132  A    between atoms: _320  and  _323
REMARK  133  A    between atoms: _323  and  _324
REMARK  134  A    between atoms: _327  and  _329
REMARK  135  A    between atoms: _329  and  _330
REMARK  136  A    between atoms: _329  and  _332
REMARK  137  A    between atoms: _332  and  _333
REMARK  138  A    between atoms: _336  and  _338
REMARK  139  A    between atoms: _338  and  _339
REMARK  140  A    between atoms: _341  and  _343
REMARK  141  A    between atoms: _343  and  _344
REMARK  142  A    between atoms: _347  and  _349
REMARK  143  A    between atoms: _349  and  _350
REMARK  144  A    between atoms: _349  and  _352
REMARK  145  A    between atoms: _352  and  _353
REMARK  146  A    between atoms: _356  and  _358
REMARK  147  A    between atoms: _358  and  _359
REMARK  148  A    between atoms: _358  and  _361
REMARK  149  A    between atoms: _361  and  _362
REMARK  150  A    between atoms: _365  and  _367
REMARK  151  A    between atoms: _367  and  _368
REMARK  152  A    between atoms: _367  and  _370
REMARK  153  A    between atoms: _370  and  _371
REMARK  154  A    between atoms: _374  and  _376
REMARK  155  A    between atoms: _376  and  _377
REMARK  156  A    between atoms: _376  and  _379
REMARK  157  A    between atoms: _382  and  _384
REMARK  158  A    between atoms: _384  and  _385
REMARK  159  A    between atoms: _384  and  _387
REMARK  160  A    between atoms: _387  and  _388
REMARK  161  A    between atoms: _388  and  _389
REMARK  162  A    between atoms: _389  and  _390
REMARK  163  A    between atoms: _390  and  _391
REMARK  164  A    between atoms: _395  and  _397
REMARK  165  A    between atoms: _397  and  _398
REMARK  166  A    between atoms: _397  and  _400
REMARK  167  A    between atoms: _400  and  _401
REMARK  168  A    between atoms: _401  and  _402
REMARK  169  A    between atoms: _404  and  _406
REMARK  170  A    between atoms: _406  and  _407
REMARK  171  A    between atoms: _406  and  _409
REMARK  172  A    between atoms: _409  and  _410
REMARK  173  A    between atoms: _413  and  _415
REMARK  174  A    between atoms: _415  and  _416
REMARK  175  A    between atoms: _418  and  _420
REMARK  176  A    between atoms: _420  and  _421
REMARK  177  A    between atoms: _423  and  _425
REMARK  178  A    between atoms: _425  and  _426
REMARK  179  A    between atoms: _425  and  _428
REMARK  180  A    between atoms: _431  and  _433
REMARK  181  A    between atoms: _433  and  _434
REMARK  182  A    between atoms: _436  and  _438
REMARK  183  A    between atoms: _438  and  _439
REMARK  184  A    between atoms: _441  and  _443
REMARK  185  A    between atoms: _443  and  _444
REMARK  186  A    between atoms: _443  and  _446
REMARK  187  A    between atoms: _446  and  _447
REMARK  188  A    between atoms: _453  and  _455
REMARK  189  A    between atoms: _455  and  _456
REMARK  190  A    between atoms: _455  and  _458
REMARK  191  A    between atoms: _458  and  _459
REMARK  192  A    between atoms: _462  and  _464
REMARK  193  A    between atoms: _464  and  _465
REMARK  194  A    between atoms: _464  and  _467
REMARK  195  A    between atoms: _470  and  _472
REMARK  196  A    between atoms: _472  and  _473
REMARK  197  A    between atoms: _472  and  _475
REMARK  198  A    between atoms: _475  and  _476
REMARK  199  A    between atoms: _480  and  _481
REMARK  200  A    between atoms: _486  and  _488
REMARK  201  A    between atoms: _488  and  _489
REMARK  202  A    between atoms: _488  and  _491
REMARK  203  A    between atoms: _491  and  _492
REMARK  204  A    between atoms: _496  and  _497
REMARK  205  A    between atoms: _502  and  _504
REMARK  206  A    between atoms: _504  and  _505
REMARK  207  A    between atoms: _504  and  _507
REMARK  208  A    between atoms: _510  and  _512
REMARK  209  A    between atoms: _512  and  _513
REMARK  210  A    between atoms: _512  and  _515
REMARK  211  A    between atoms: _515  and  _516
REMARK  212  A    between atoms: _521  and  _523
REMARK  213  A    between atoms: _523  and  _524
REMARK  214  A    between atoms: _523  and  _526
REMARK  215  A    between atoms: _526  and  _527
REMARK  216  A    between atoms: _530  and  _532
REMARK  217  A    between atoms: _532  and  _533
REMARK  218  A    between atoms: _532  and  _535
REMARK  219  A    between atoms: _535  and  _536
REMARK  220  A    between atoms: _539  and  _541
REMARK  221  A    between atoms: _541  and  _542
REMARK  222  A    between atoms: _544  and  _546
REMARK  223  A    between atoms: _546  and  _547
REMARK  224  A    between atoms: _546  and  _549
REMARK  225  A    between atoms: _549  and  _550
REMARK  226  A    between atoms: _550  and  _551
REMARK  227  A    between atoms: _551  and  _552
REMARK  228  A    between atoms: _561  and  _563
REMARK  229  A    between atoms: _563  and  _564
REMARK  230  A    between atoms: _563  and  _566
REMARK  231  A    between atoms: _566  and  _567
REMARK                            x       y       z     vdW  Elec       q    Type
REMARK                         _______ _______ _______ _____ _____    ______ ____
ROOT
ATOM      1  O   HOH     1      -5.347  14.708 -25.795  0.00  0.00    +0.000 OA
ENDROOT
TORSDOF 0
REMARK  Name = ../refined-set-2016/2r3t/2r3t_pocket.pdb
REMARK  231 active torsions:
REMARK  status: ('A' for Active; 'I' for Inactive)
REMARK    1  A    between atoms: _1  and  _3
REMARK    2  A    between atoms: _3  and  _4
REMARK    3  A    between atoms: _3  and  _6
REMARK    4  A    between atoms: _6  and  _7
REMARK    5  A    between atoms: _7  and  _8
REMARK    6  A    between atoms: _8  and  _9
REMARK    7  A    between atoms: _18  and  _20
REMARK    8  A    between atoms: _20  and  _21
REMARK    9  A    between atoms: _20  and  _23
REMARK   10  A    between atoms: _23  and  _24
REMARK   11  A    between atoms: _27  and  _29
REMARK   12  A    between atoms: _29  and  _30
REMARK   13  A    between atoms: _29  and  _32
REMARK   14  A    between atoms: _32  and  _33
REMARK   15  A    between atoms: _36  and  _38
REMARK   16  A    between atoms: _38  and  _39
REMARK   17  A    between atoms: _38  and  _41
REMARK   18  A    between atoms: _41  and  _42
REMARK   19  A    between atoms: _45  and  _47
REMARK   20  A    between atoms: _47  and  _48
REMARK   21  A    between atoms: _47  and  _50
REMARK   22  A    between atoms: _50  and  _51
REMARK   23  A    between atoms: _54  and  _56
REMARK   24  A    between atoms: _56  and  _57
REMARK   25  A    between atoms: _59  and  _61
REMARK   26  A    between atoms: _61  and  _62
REMARK   27  A    between atoms: _65  and  _67
REMARK   28  A    between atoms: _67  and  _68
REMARK   29  A    between atoms: _67  and  _70
REMARK   30  A    between atoms: _70  and  _71
REMARK   31  A    between atoms: _74  and  _76
REMARK   32  A    between atoms: _76  and  _77
REMARK   33  A    between atoms: _76  and  _79
REMARK   34  A    between atoms: _79  and  _80
REMARK   35  A    between atoms: _83  and  _85
REMARK   36  A    between atoms: _85  and  _86
REMARK   37  A    between atoms: _85  and  _88
REMARK   38  A    between atoms: _88  and  _89
REMARK   39  A    between atoms: _92  and  _94
REMARK   40  A    between atoms: _94  and  _95
REMARK   41  A    between atoms: _94  and  _97
REMARK   42  A    between atoms: _100  and  _102
REMARK   43  A    between atoms: _102  and  _103
REMARK   44  A    between atoms: _102  and  _105
REMARK   45  A    between atoms: _105  and  _106
REMARK   46  A    between atoms: _106  and  _107
REMARK   47  A    between atoms: _107  and  _108
REMARK   48  A    between atoms: _108  and  _109
REMARK   49  A    between atoms: _113  and  _115
REMARK   50  A    between atoms: _115  and  _116
REMARK   51  A    between atoms: _115  and  _118
REMARK   52  A    between atoms: _118  and  _119
REMARK   53  A    between atoms: _119  and  _120
REMARK   54  A    between atoms: _122  and  _124
REMARK   55  A    between atoms: _124  and  _125
REMARK   56  A    between atoms: _124  and  _127
REMARK   57  A    between atoms: _127  and  _128
REMARK   58  A    between atoms: _131  and  _133
REMARK   59  A    between atoms: _133  and  _134
REMARK   60  A    between atoms: _136  and  _138
REMARK   61  A    between atoms: _138  and  _139
REMARK   62  A    between atoms: _141  and  _143
REMARK   63  A    between atoms: _143  and  _144
REMARK   64  A    between atoms: _143  and  _146
REMARK   65  A    between atoms: _149  and  _151
REMARK   66  A    between atoms: _151  and  _152
REMARK   67  A    between atoms: _154  and  _156
REMARK   68  A    between atoms: _156  and  _157
REMARK   69  A    between atoms: _159  and  _161
REMARK   70  A    between atoms: _161  and  _162
REMARK   71  A    between atoms: _161  and  _164
REMARK   72  A    between atoms: _164  and  _165
REMARK   73  A    between atoms: _171  and  _173
REMARK   74  A    between atoms: _173  and  _174
REMARK   75  A    between atoms: _173  and  _176
REMARK   76  A    between atoms: _176  and  _177
REMARK   77  A    between atoms: _180  and  _182
REMARK   78  A    between atoms: _182  and  _183
REMARK   79  A    between atoms: _182  and  _185
REMARK   80  A    between atoms: _188  and  _190
REMARK   81  A    between atoms: _190  and  _191
REMARK   82  A    between atoms: _190  and  _193
REMARK   83  A    between atoms: _193  and  _194
REMARK   84  A    between atoms: _197  and  _199
REMARK   85  A    between atoms: _199  and  _200
REMARK   86  A    between atoms: _199  and  _202
REMARK   87  A    between atoms: _202  and  _203
REMARK   88  A    between atoms: _207  and  _208
REMARK   89  A    between atoms: _213  and  _215
REMARK   90  A    between atoms: _215  and  _216
REMARK   91  A    between atoms: _215  and  _218
REMARK   92  A    between atoms: _221  and  _223
REMARK   93  A    between atoms: _223  and  _224
REMARK   94  A    between atoms: _223  and  _226
REMARK   95  A    between atoms: _226  and  _227
REMARK   96  A    between atoms: _232  and  _234
REMARK   97  A    between atoms: _234  and  _235
REMARK   98  A    between atoms: _234  and  _237
REMARK   99  A    between atoms: _237  and  _238
REMARK  100  A    between atoms: _241  and  _243
REMARK  101  A    between atoms: _243  and  _244
REMARK  102  A    between atoms: _243  and  _246
REMARK  103  A    between atoms: _246  and  _247
REMARK  104  A    between atoms: _250  and  _252
REMARK  105  A    between atoms: _252  and  _253
REMARK  106  A    between atoms: _255  and  _257
REMARK  107  A    between atoms: _257  and  _258
REMARK  108  A    between atoms: _257  and  _260
REMARK  109  A    between atoms: _260  and  _261
REMARK  110  A    between atoms: _261  and  _262
REMARK  111  A    between atoms: _262  and  _263
REMARK  112  A    between atoms: _272  and  _274
REMARK  113  A    between atoms: _274  and  _275
REMARK  114  A    between atoms: _274  and  _277
REMARK  115  A    between atoms: _277  and  _278
REMARK  116  A    between atoms: _283  and  _285
REMARK  117  A    between atoms: _285  and  _286
REMARK  118  A    between atoms: _285  and  _288
REMARK  119  A    between atoms: _288  and  _289
REMARK  120  A    between atoms: _289  and  _290
REMARK  121  A    between atoms: _290  and  _291
REMARK  122  A    between atoms: _300  and  _302
REMARK  123  A    between atoms: _302  and  _303
REMARK  124  A    between atoms: _302  and  _305
REMARK  125  A    between atoms: _305  and  _306
REMARK  126  A    between atoms: _309  and  _311
REMARK  127  A    between atoms: _311  and  _312
REMARK  128  A    between atoms: _311  and  _314
REMARK  129  A    between atoms: _314  and  _315
REMARK  130  A    between atoms: _318  and  _320
REMARK  131  A    between atoms: _320  and  _321
REMARK  132  A    between atoms: _320  and  _323
REMARK  133  A    between atoms: _323  and  _324
REMARK  134  A    between atoms: _327  and  _329
REMARK  135  A    between atoms: _329  and  _330
REMARK  136  A    between atoms: _329  and  _332
REMARK  137  A    between atoms: _332  and  _333
REMARK  138  A    between atoms: _336  and  _338
REMARK  139  A    between atoms: _338  and  _339
REMARK  140  A    between atoms: _341  and  _343
REMARK  141  A    between atoms: _343  and  _344
REMARK  142  A    between atoms: _347  and  _349
REMARK  143  A    between atoms: _349  and  _350
REMARK  144  A    between atoms: _349  and  _352
REMARK  145  A    between atoms: _352  and  _353
REMARK  146  A    between atoms: _356  and  _358
REMARK  147  A    between atoms: _358  and  _359
REMARK  148  A    between atoms: _358  and  _361
REMARK  149  A    between atoms: _361  and  _362
REMARK  150  A    between atoms: _365  and  _367
REMARK  151  A    between atoms: _367  and  _368
REMARK  152  A    between atoms: _367  and  _370
REMARK  153  A    between atoms: _370  and  _371
REMARK  154  A    between atoms: _374  and  _376
REMARK  155  A    between atoms: _376  and  _377
REMARK  156  A    between atoms: _376  and  _379
REMARK  157  A    between atoms: _382  and  _384
REMARK  158  A    between atoms: _384  and  _385
REMARK  159  A    between atoms: _384  and  _387
REMARK  160  A    between atoms: _387  and  _388
REMARK  161  A    between atoms: _388  and  _389
REMARK  162  A    between atoms: _389  and  _390
REMARK  163  A    between atoms: _390  and  _391
REMARK  164  A    between atoms: _395  and  _397
REMARK  165  A    between atoms: _397  and  _398
REMARK  166  A    between atoms: _397  and  _400
REMARK  167  A    between atoms: _400  and  _401
REMARK  168  A    between atoms: _401  and  _402
REMARK  169  A    between atoms: _404  and  _406
REMARK  170  A    between atoms: _406  and  _407
REMARK  171  A    between atoms: _406  and  _409
REMARK  172  A    between atoms: _409  and  _410
REMARK  173  A    between atoms: _413  and  _415
REMARK  174  A    between atoms: _415  and  _416
REMARK  175  A    between atoms: _418  and  _420
REMARK  176  A    between atoms: _420  and  _421
REMARK  177  A    between atoms: _423  and  _425
REMARK  178  A    between atoms: _425  and  _426
REMARK  179  A    between atoms: _425  and  _428
REMARK  180  A    between atoms: _431  and  _433
REMARK  181  A    between atoms: _433  and  _434
REMARK  182  A    between atoms: _436  and  _438
REMARK  183  A    between atoms: _438  and  _439
REMARK  184  A    between atoms: _441  and  _443
REMARK  185  A    between atoms: _443  and  _444
REMARK  186  A    between atoms: _443  and  _446
REMARK  187  A    between atoms: _446  and  _447
REMARK  188  A    between atoms: _453  and  _455
REMARK  189  A    between atoms: _455  and  _456
REMARK  190  A    between atoms: _455  and  _458
REMARK  191  A    between atoms: _458  and  _459
REMARK  192  A    between atoms: _462  and  _464
REMARK  193  A    between atoms: _464  and  _465
REMARK  194  A    between atoms: _464  and  _467
REMARK  195  A    between atoms: _470  and  _472
REMARK  196  A    between atoms: _472  and  _473
REMARK  197  A    between atoms: _472  and  _475
REMARK  198  A    between atoms: _475  and  _476
REMARK  199  A    between atoms: _480  and  _481
REMARK  200  A    between atoms: _486  and  _488
REMARK  201  A    between atoms: _488  and  _489
REMARK  202  A    between atoms: _488  and  _491
REMARK  203  A    between atoms: _491  and  _492
REMARK  204  A    between atoms: _496  and  _497
REMARK  205  A    between atoms: _502  and  _504
REMARK  206  A    between atoms: _504  and  _505
REMARK  207  A    between atoms: _504  and  _507
REMARK  208  A    between atoms: _510  and  _512
REMARK  209  A    between atoms: _512  and  _513
REMARK  210  A    between atoms: _512  and  _515
REMARK  211  A    between atoms: _515  and  _516
REMARK  212  A    between atoms: _521  and  _523
REMARK  213  A    between atoms: _523  and  _524
REMARK  214  A    between atoms: _523  and  _526
REMARK  215  A    between atoms: _526  and  _527
REMARK  216  A    between atoms: _530  and  _532
REMARK  217  A    between atoms: _532  and  _533
REMARK  218  A    between atoms: _532  and  _535
REMARK  219  A    between atoms: _535  and  _536
REMARK  220  A    between atoms: _539  and  _541
REMARK  221  A    between atoms: _541  and  _542
REMARK  222  A    between atoms: _544  and  _546
REMARK  223  A    between atoms: _546  and  _547
REMARK  224  A    between atoms: _546  and  _549
REMARK  225  A    between atoms: _549  and  _550
REMARK  226  A    between atoms: _550  and  _551
REMARK  227  A    between atoms: _551  and  _552
REMARK  228  A    between atoms: _561  and  _563
REMARK  229  A    between atoms: _563  and  _564
REMARK  230  A    between atoms: _563  and  _566
REMARK  231  A    between atoms: _566  and  _567
REMARK                            x       y       z     vdW  Elec       q    Type
REMARK                         _______ _______ _______ _____ _____    ______ ____
ROOT
ATOM      1  O   HOH     1     -24.021  23.754 -23.047  0.00  0.00    +0.000 OA
ENDROOT
TORSDOF 0
REMARK  Name = ../refined-set-2016/2r3t/2r3t_pocket.pdb
REMARK  231 active torsions:
REMARK  status: ('A' for Active; 'I' for Inactive)
REMARK    1  A    between atoms: _1  and  _3
REMARK    2  A    between atoms: _3  and  _4
REMARK    3  A    between atoms: _3  and  _6
REMARK    4  A    between atoms: _6  and  _7
REMARK    5  A    between atoms: _7  and  _8
REMARK    6  A    between atoms: _8  and  _9
REMARK    7  A    between atoms: _18  and  _20
REMARK    8  A    between atoms: _20  and  _21
REMARK    9  A    between atoms: _20  and  _23
REMARK   10  A    between atoms: _23  and  _24
REMARK   11  A    between atoms: _27  and  _29
REMARK   12  A    between atoms: _29  and  _30
REMARK   13  A    between atoms: _29  and  _32
REMARK   14  A    between atoms: _32  and  _33
REMARK   15  A    between atoms: _36  and  _38
REMARK   16  A    between atoms: _38  and  _39
REMARK   17  A    between atoms: _38  and  _41
REMARK   18  A    between atoms: _41  and  _42
REMARK   19  A    between atoms: _45  and  _47
REMARK   20  A    between atoms: _47  and  _48
REMARK   21  A    between atoms: _47  and  _50
REMARK   22  A    between atoms: _50  and  _51
REMARK   23  A    between atoms: _54  and  _56
REMARK   24  A    between atoms: _56  and  _57
REMARK   25  A    between atoms: _59  and  _61
REMARK   26  A    between atoms: _61  and  _62
REMARK   27  A    between atoms: _65  and  _67
REMARK   28  A    between atoms: _67  and  _68
REMARK   29  A    between atoms: _67  and  _70
REMARK   30  A    between atoms: _70  and  _71
REMARK   31  A    between atoms: _74  and  _76
REMARK   32  A    between atoms: _76  and  _77
REMARK   33  A    between atoms: _76  and  _79
REMARK   34  A    between atoms: _79  and  _80
REMARK   35  A    between atoms: _83  and  _85
REMARK   36  A    between atoms: _85  and  _86
REMARK   37  A    between atoms: _85  and  _88
REMARK   38  A    between atoms: _88  and  _89
REMARK   39  A    between atoms: _92  and  _94
REMARK   40  A    between atoms: _94  and  _95
REMARK   41  A    between atoms: _94  and  _97
REMARK   42  A    between atoms: _100  and  _102
REMARK   43  A    between atoms: _102  and  _103
REMARK   44  A    between atoms: _102  and  _105
REMARK   45  A    between atoms: _105  and  _106
REMARK   46  A    between atoms: _106  and  _107
REMARK   47  A    between atoms: _107  and  _108
REMARK   48  A    between atoms: _108  and  _109
REMARK   49  A    between atoms: _113  and  _115
REMARK   50  A    between atoms: _115  and  _116
REMARK   51  A    between atoms: _115  and  _118
REMARK   52  A    between atoms: _118  and  _119
REMARK   53  A    between atoms: _119  and  _120
REMARK   54  A    between atoms: _122  and  _124
REMARK   55  A    between atoms: _124  and  _125
REMARK   56  A    between atoms: _124  and  _127
REMARK   57  A    between atoms: _127  and  _128
REMARK   58  A    between atoms: _131  and  _133
REMARK   59  A    between atoms: _133  and  _134
REMARK   60  A    between atoms: _136  and  _138
REMARK   61  A    between atoms: _138  and  _139
REMARK   62  A    between atoms: _141  and  _143
REMARK   63  A    between atoms: _143  and  _144
REMARK   64  A    between atoms: _143  and  _146
REMARK   65  A    between atoms: _149  and  _151
REMARK   66  A    between atoms: _151  and  _152
REMARK   67  A    between atoms: _154  and  _156
REMARK   68  A    between atoms: _156  and  _157
REMARK   69  A    between atoms: _159  and  _161
REMARK   70  A    between atoms: _161  and  _162
REMARK   71  A    between atoms: _161  and  _164
REMARK   72  A    between atoms: _164  and  _165
REMARK   73  A    between atoms: _171  and  _173
REMARK   74  A    between atoms: _173  and  _174
REMARK   75  A    between atoms: _173  and  _176
REMARK   76  A    between atoms: _176  and  _177
REMARK   77  A    between atoms: _180  and  _182
REMARK   78  A    between atoms: _182  and  _183
REMARK   79  A    between atoms: _182  and  _185
REMARK   80  A    between atoms: _188  and  _190
REMARK   81  A    between atoms: _190  and  _191
REMARK   82  A    between atoms: _190  and  _193
REMARK   83  A    between atoms: _193  and  _194
REMARK   84  A    between atoms: _197  and  _199
REMARK   85  A    between atoms: _199  and  _200
REMARK   86  A    between atoms: _199  and  _202
REMARK   87  A    between atoms: _202  and  _203
REMARK   88  A    between atoms: _207  and  _208
REMARK   89  A    between atoms: _213  and  _215
REMARK   90  A    between atoms: _215  and  _216
REMARK   91  A    between atoms: _215  and  _218
REMARK   92  A    between atoms: _221  and  _223
REMARK   93  A    between atoms: _223  and  _224
REMARK   94  A    between atoms: _223  and  _226
REMARK   95  A    between atoms: _226  and  _227
REMARK   96  A    between atoms: _232  and  _234
REMARK   97  A    between atoms: _234  and  _235
REMARK   98  A    between atoms: _234  and  _237
REMARK   99  A    between atoms: _237  and  _238
REMARK  100  A    between atoms: _241  and  _243
REMARK  101  A    between atoms: _243  and  _244
REMARK  102  A    between atoms: _243  and  _246
REMARK  103  A    between atoms: _246  and  _247
REMARK  104  A    between atoms: _250  and  _252
REMARK  105  A    between atoms: _252  and  _253
REMARK  106  A    between atoms: _255  and  _257
REMARK  107  A    between atoms: _257  and  _258
REMARK  108  A    between atoms: _257  and  _260
REMARK  109  A    between atoms: _260  and  _261
REMARK  110  A    between atoms: _261  and  _262
REMARK  111  A    between atoms: _262  and  _263
REMARK  112  A    between atoms: _272  and  _274
REMARK  113  A    between atoms: _274  and  _275
REMARK  114  A    between atoms: _274  and  _277
REMARK  115  A    between atoms: _277  and  _278
REMARK  116  A    between atoms: _283  and  _285
REMARK  117  A    between atoms: _285  and  _286
REMARK  118  A    between atoms: _285  and  _288
REMARK  119  A    between atoms: _288  and  _289
REMARK  120  A    between atoms: _289  and  _290
REMARK  121  A    between atoms: _290  and  _291
REMARK  122  A    between atoms: _300  and  _302
REMARK  123  A    between atoms: _302  and  _303
REMARK  124  A    between atoms: _302  and  _305
REMARK  125  A    between atoms: _305  and  _306
REMARK  126  A    between atoms: _309  and  _311
REMARK  127  A    between atoms: _311  and  _312
REMARK  128  A    between atoms: _311  and  _314
REMARK  129  A    between atoms: _314  and  _315
REMARK  130  A    between atoms: _318  and  _320
REMARK  131  A    between atoms: _320  and  _321
REMARK  132  A    between atoms: _320  and  _323
REMARK  133  A    between atoms: _323  and  _324
REMARK  134  A    between atoms: _327  and  _329
REMARK  135  A    between atoms: _329  and  _330
REMARK  136  A    between atoms: _329  and  _332
REMARK  137  A    between atoms: _332  and  _333
REMARK  138  A    between atoms: _336  and  _338
REMARK  139  A    between atoms: _338  and  _339
REMARK  140  A    between atoms: _341  and  _343
REMARK  141  A    between atoms: _343  and  _344
REMARK  142  A    between atoms: _347  and  _349
REMARK  143  A    between atoms: _349  and  _350
REMARK  144  A    between atoms: _349  and  _352
REMARK  145  A    between atoms: _352  and  _353
REMARK  146  A    between atoms: _356  and  _358
REMARK  147  A    between atoms: _358  and  _359
REMARK  148  A    between atoms: _358  and  _361
REMARK  149  A    between atoms: _361  and  _362
REMARK  150  A    between atoms: _365  and  _367
REMARK  151  A    between atoms: _367  and  _368
REMARK  152  A    between atoms: _367  and  _370
REMARK  153  A    between atoms: _370  and  _371
REMARK  154  A    between atoms: _374  and  _376
REMARK  155  A    between atoms: _376  and  _377
REMARK  156  A    between atoms: _376  and  _379
REMARK  157  A    between atoms: _382  and  _384
REMARK  158  A    between atoms: _384  and  _385
REMARK  159  A    between atoms: _384  and  _387
REMARK  160  A    between atoms: _387  and  _388
REMARK  161  A    between atoms: _388  and  _389
REMARK  162  A    between atoms: _389  and  _390
REMARK  163  A    between atoms: _390  and  _391
REMARK  164  A    between atoms: _395  and  _397
REMARK  165  A    between atoms: _397  and  _398
REMARK  166  A    between atoms: _397  and  _400
REMARK  167  A    between atoms: _400  and  _401
REMARK  168  A    between atoms: _401  and  _402
REMARK  169  A    between atoms: _404  and  _406
REMARK  170  A    between atoms: _406  and  _407
REMARK  171  A    between atoms: _406  and  _409
REMARK  172  A    between atoms: _409  and  _410
REMARK  173  A    between atoms: _413  and  _415
REMARK  174  A    between atoms: _415  and  _416
REMARK  175  A    between atoms: _418  and  _420
REMARK  176  A    between atoms: _420  and  _421
REMARK  177  A    between atoms: _423  and  _425
REMARK  178  A    between atoms: _425  and  _426
REMARK  179  A    between atoms: _425  and  _428
REMARK  180  A    between atoms: _431  and  _433
REMARK  181  A    between atoms: _433  and  _434
REMARK  182  A    between atoms: _436  and  _438
REMARK  183  A    between atoms: _438  and  _439
REMARK  184  A    between atoms: _441  and  _443
REMARK  185  A    between atoms: _443  and  _444
REMARK  186  A    between atoms: _443  and  _446
REMARK  187  A    between atoms: _446  and  _447
REMARK  188  A    between atoms: _453  and  _455
REMARK  189  A    between atoms: _455  and  _456
REMARK  190  A    between atoms: _455  and  _458
REMARK  191  A    between atoms: _458  and  _459
REMARK  192  A    between atoms: _462  and  _464
REMARK  193  A    between atoms: _464  and  _465
REMARK  194  A    between atoms: _464  and  _467
REMARK  195  A    between atoms: _470  and  _472
REMARK  196  A    between atoms: _472  and  _473
REMARK  197  A    between atoms: _472  and  _475
REMARK  198  A    between atoms: _475  and  _476
REMARK  199  A    between atoms: _480  and  _481
REMARK  200  A    between atoms: _486  and  _488
REMARK  201  A    between atoms: _488  and  _489
REMARK  202  A    between atoms: _488  and  _491
REMARK  203  A    between atoms: _491  and  _492
REMARK  204  A    between atoms: _496  and  _497
REMARK  205  A    between atoms: _502  and  _504
REMARK  206  A    between atoms: _504  and  _505
REMARK  207  A    between atoms: _504  and  _507
REMARK  208  A    between atoms: _510  and  _512
REMARK  209  A    between atoms: _512  and  _513
REMARK  210  A    between atoms: _512  and  _515
REMARK  211  A    between atoms: _515  and  _516
REMARK  212  A    between atoms: _521  and  _523
REMARK  213  A    between atoms: _523  and  _524
REMARK  214  A    between atoms: _523  and  _526
REMARK  215  A    between atoms: _526  and  _527
REMARK  216  A    between atoms: _530  and  _532
REMARK  217  A    between atoms: _532  and  _533
REMARK  218  A    between atoms: _532  and  _535
REMARK  219  A    between atoms: _535  and  _536
REMARK  220  A    between atoms: _539  and  _541
REMARK  221  A    between atoms: _541  and  _542
REMARK  222  A    between atoms: _544  and  _546
REMARK  223  A    between atoms: _546  and  _547
REMARK  224  A    between atoms: _546  and  _549
REMARK  225  A    between atoms: _549  and  _550
REMARK  226  A    between atoms: _550  and  _551
REMARK  227  A    between atoms: _551  and  _552
REMARK  228  A    between atoms: _561  and  _563
REMARK  229  A    between atoms: _563  and  _564
REMARK  230  A    between atoms: _563  and  _566
REMARK  231  A    between atoms: _566  and  _567
REMARK                            x       y       z     vdW  Elec       q    Type
REMARK                         _______ _______ _______ _____ _____    ______ ____
ROOT
ATOM      1  O   HOH     1     -17.477  25.015 -16.421  0.00  0.00    +0.000 OA
ENDROOT
TORSDOF 0
REMARK  Name = ../refined-set-2016/2r3t/2r3t_pocket.pdb
REMARK  231 active torsions:
REMARK  status: ('A' for Active; 'I' for Inactive)
REMARK    1  A    between atoms: _1  and  _3
REMARK    2  A    between atoms: _3  and  _4
REMARK    3  A    between atoms: _3  and  _6
REMARK    4  A    between atoms: _6  and  _7
REMARK    5  A    between atoms: _7  and  _8
REMARK    6  A    between atoms: _8  and  _9
REMARK    7  A    between atoms: _18  and  _20
REMARK    8  A    between atoms: _20  and  _21
REMARK    9  A    between atoms: _20  and  _23
REMARK   10  A    between atoms: _23  and  _24
REMARK   11  A    between atoms: _27  and  _29
REMARK   12  A    between atoms: _29  and  _30
REMARK   13  A    between atoms: _29  and  _32
REMARK   14  A    between atoms: _32  and  _33
REMARK   15  A    between atoms: _36  and  _38
REMARK   16  A    between atoms: _38  and  _39
REMARK   17  A    between atoms: _38  and  _41
REMARK   18  A    between atoms: _41  and  _42
REMARK   19  A    between atoms: _45  and  _47
REMARK   20  A    between atoms: _47  and  _48
REMARK   21  A    between atoms: _47  and  _50
REMARK   22  A    between atoms: _50  and  _51
REMARK   23  A    between atoms: _54  and  _56
REMARK   24  A    between atoms: _56  and  _57
REMARK   25  A    between atoms: _59  and  _61
REMARK   26  A    between atoms: _61  and  _62
REMARK   27  A    between atoms: _65  and  _67
REMARK   28  A    between atoms: _67  and  _68
REMARK   29  A    between atoms: _67  and  _70
REMARK   30  A    between atoms: _70  and  _71
REMARK   31  A    between atoms: _74  and  _76
REMARK   32  A    between atoms: _76  and  _77
REMARK   33  A    between atoms: _76  and  _79
REMARK   34  A    between atoms: _79  and  _80
REMARK   35  A    between atoms: _83  and  _85
REMARK   36  A    between atoms: _85  and  _86
REMARK   37  A    between atoms: _85  and  _88
REMARK   38  A    between atoms: _88  and  _89
REMARK   39  A    between atoms: _92  and  _94
REMARK   40  A    between atoms: _94  and  _95
REMARK   41  A    between atoms: _94  and  _97
REMARK   42  A    between atoms: _100  and  _102
REMARK   43  A    between atoms: _102  and  _103
REMARK   44  A    between atoms: _102  and  _105
REMARK   45  A    between atoms: _105  and  _106
REMARK   46  A    between atoms: _106  and  _107
REMARK   47  A    between atoms: _107  and  _108
REMARK   48  A    between atoms: _108  and  _109
REMARK   49  A    between atoms: _113  and  _115
REMARK   50  A    between atoms: _115  and  _116
REMARK   51  A    between atoms: _115  and  _118
REMARK   52  A    between atoms: _118  and  _119
REMARK   53  A    between atoms: _119  and  _120
REMARK   54  A    between atoms: _122  and  _124
REMARK   55  A    between atoms: _124  and  _125
REMARK   56  A    between atoms: _124  and  _127
REMARK   57  A    between atoms: _127  and  _128
REMARK   58  A    between atoms: _131  and  _133
REMARK   59  A    between atoms: _133  and  _134
REMARK   60  A    between atoms: _136  and  _138
REMARK   61  A    between atoms: _138  and  _139
REMARK   62  A    between atoms: _141  and  _143
REMARK   63  A    between atoms: _143  and  _144
REMARK   64  A    between atoms: _143  and  _146
REMARK   65  A    between atoms: _149  and  _151
REMARK   66  A    between atoms: _151  and  _152
REMARK   67  A    between atoms: _154  and  _156
REMARK   68  A    between atoms: _156  and  _157
REMARK   69  A    between atoms: _159  and  _161
REMARK   70  A    between atoms: _161  and  _162
REMARK   71  A    between atoms: _161  and  _164
REMARK   72  A    between atoms: _164  and  _165
REMARK   73  A    between atoms: _171  and  _173
REMARK   74  A    between atoms: _173  and  _174
REMARK   75  A    between atoms: _173  and  _176
REMARK   76  A    between atoms: _176  and  _177
REMARK   77  A    between atoms: _180  and  _182
REMARK   78  A    between atoms: _182  and  _183
REMARK   79  A    between atoms: _182  and  _185
REMARK   80  A    between atoms: _188  and  _190
REMARK   81  A    between atoms: _190  and  _191
REMARK   82  A    between atoms: _190  and  _193
REMARK   83  A    between atoms: _193  and  _194
REMARK   84  A    between atoms: _197  and  _199
REMARK   85  A    between atoms: _199  and  _200
REMARK   86  A    between atoms: _199  and  _202
REMARK   87  A    between atoms: _202  and  _203
REMARK   88  A    between atoms: _207  and  _208
REMARK   89  A    between atoms: _213  and  _215
REMARK   90  A    between atoms: _215  and  _216
REMARK   91  A    between atoms: _215  and  _218
REMARK   92  A    between atoms: _221  and  _223
REMARK   93  A    between atoms: _223  and  _224
REMARK   94  A    between atoms: _223  and  _226
REMARK   95  A    between atoms: _226  and  _227
REMARK   96  A    between atoms: _232  and  _234
REMARK   97  A    between atoms: _234  and  _235
REMARK   98  A    between atoms: _234  and  _237
REMARK   99  A    between atoms: _237  and  _238
REMARK  100  A    between atoms: _241  and  _243
REMARK  101  A    between atoms: _243  and  _244
REMARK  102  A    between atoms: _243  and  _246
REMARK  103  A    between atoms: _246  and  _247
REMARK  104  A    between atoms: _250  and  _252
REMARK  105  A    between atoms: _252  and  _253
REMARK  106  A    between atoms: _255  and  _257
REMARK  107  A    between atoms: _257  and  _258
REMARK  108  A    between atoms: _257  and  _260
REMARK  109  A    between atoms: _260  and  _261
REMARK  110  A    between atoms: _261  and  _262
REMARK  111  A    between atoms: _262  and  _263
REMARK  112  A    between atoms: _272  and  _274
REMARK  113  A    between atoms: _274  and  _275
REMARK  114  A    between atoms: _274  and  _277
REMARK  115  A    between atoms: _277  and  _278
REMARK  116  A    between atoms: _283  and  _285
REMARK  117  A    between atoms: _285  and  _286
REMARK  118  A    between atoms: _285  and  _288
REMARK  119  A    between atoms: _288  and  _289
REMARK  120  A    between atoms: _289  and  _290
REMARK  121  A    between atoms: _290  and  _291
REMARK  122  A    between atoms: _300  and  _302
REMARK  123  A    between atoms: _302  and  _303
REMARK  124  A    between atoms: _302  and  _305
REMARK  125  A    between atoms: _305  and  _306
REMARK  126  A    between atoms: _309  and  _311
REMARK  127  A    between atoms: _311  and  _312
REMARK  128  A    between atoms: _311  and  _314
REMARK  129  A    between atoms: _314  and  _315
REMARK  130  A    between atoms: _318  and  _320
REMARK  131  A    between atoms: _320  and  _321
REMARK  132  A    between atoms: _320  and  _323
REMARK  133  A    between atoms: _323  and  _324
REMARK  134  A    between atoms: _327  and  _329
REMARK  135  A    between atoms: _329  and  _330
REMARK  136  A    between atoms: _329  and  _332
REMARK  137  A    between atoms: _332  and  _333
REMARK  138  A    between atoms: _336  and  _338
REMARK  139  A    between atoms: _338  and  _339
REMARK  140  A    between atoms: _341  and  _343
REMARK  141  A    between atoms: _343  and  _344
REMARK  142  A    between atoms: _347  and  _349
REMARK  143  A    between atoms: _349  and  _350
REMARK  144  A    between atoms: _349  and  _352
REMARK  145  A    between atoms: _352  and  _353
REMARK  146  A    between atoms: _356  and  _358
REMARK  147  A    between atoms: _358  and  _359
REMARK  148  A    between atoms: _358  and  _361
REMARK  149  A    between atoms: _361  and  _362
REMARK  150  A    between atoms: _365  and  _367
REMARK  151  A    between atoms: _367  and  _368
REMARK  152  A    between atoms: _367  and  _370
REMARK  153  A    between atoms: _370  and  _371
REMARK  154  A    between atoms: _374  and  _376
REMARK  155  A    between atoms: _376  and  _377
REMARK  156  A    between atoms: _376  and  _379
REMARK  157  A    between atoms: _382  and  _384
REMARK  158  A    between atoms: _384  and  _385
REMARK  159  A    between atoms: _384  and  _387
REMARK  160  A    between atoms: _387  and  _388
REMARK  161  A    between atoms: _388  and  _389
REMARK  162  A    between atoms: _389  and  _390
REMARK  163  A    between atoms: _390  and  _391
REMARK  164  A    between atoms: _395  and  _397
REMARK  165  A    between atoms: _397  and  _398
REMARK  166  A    between atoms: _397  and  _400
REMARK  167  A    between atoms: _400  and  _401
REMARK  168  A    between atoms: _401  and  _402
REMARK  169  A    between atoms: _404  and  _406
REMARK  170  A    between atoms: _406  and  _407
REMARK  171  A    between atoms: _406  and  _409
REMARK  172  A    between atoms: _409  and  _410
REMARK  173  A    between atoms: _413  and  _415
REMARK  174  A    between atoms: _415  and  _416
REMARK  175  A    between atoms: _418  and  _420
REMARK  176  A    between atoms: _420  and  _421
REMARK  177  A    between atoms: _423  and  _425
REMARK  178  A    between atoms: _425  and  _426
REMARK  179  A    between atoms: _425  and  _428
REMARK  180  A    between atoms: _431  and  _433
REMARK  181  A    between atoms: _433  and  _434
REMARK  182  A    between atoms: _436  and  _438
REMARK  183  A    between atoms: _438  and  _439
REMARK  184  A    between atoms: _441  and  _443
REMARK  185  A    between atoms: _443  and  _444
REMARK  186  A    between atoms: _443  and  _446
REMARK  187  A    between atoms: _446  and  _447
REMARK  188  A    between atoms: _453  and  _455
REMARK  189  A    between atoms: _455  and  _456
REMARK  190  A    between atoms: _455  and  _458
REMARK  191  A    between atoms: _458  and  _459
REMARK  192  A    between atoms: _462  and  _464
REMARK  193  A    between atoms: _464  and  _465
REMARK  194  A    between atoms: _464  and  _467
REMARK  195  A    between atoms: _470  and  _472
REMARK  196  A    between atoms: _472  and  _473
REMARK  197  A    between atoms: _472  and  _475
REMARK  198  A    between atoms: _475  and  _476
REMARK  199  A    between atoms: _480  and  _481
REMARK  200  A    between atoms: _486  and  _488
REMARK  201  A    between atoms: _488  and  _489
REMARK  202  A    between atoms: _488  and  _491
REMARK  203  A    between atoms: _491  and  _492
REMARK  204  A    between atoms: _496  and  _497
REMARK  205  A    between atoms: _502  and  _504
REMARK  206  A    between atoms: _504  and  _505
REMARK  207  A    between atoms: _504  and  _507
REMARK  208  A    between atoms: _510  and  _512
REMARK  209  A    between atoms: _512  and  _513
REMARK  210  A    between atoms: _512  and  _515
REMARK  211  A    between atoms: _515  and  _516
REMARK  212  A    between atoms: _521  and  _523
REMARK  213  A    between atoms: _523  and  _524
REMARK  214  A    between atoms: _523  and  _526
REMARK  215  A    between atoms: _526  and  _527
REMARK  216  A    between atoms: _530  and  _532
REMARK  217  A    between atoms: _532  and  _533
REMARK  218  A    between atoms: _532  and  _535
REMARK  219  A    between atoms: _535  and  _536
REMARK  220  A    between atoms: _539  and  _541
REMARK  221  A    between atoms: _541  and  _542
REMARK  222  A    between atoms: _544  and  _546
REMARK  223  A    between atoms: _546  and  _547
REMARK  224  A    between atoms: _546  and  _549
REMARK  225  A    between atoms: _549  and  _550
REMARK  226  A    between atoms: _550  and  _551
REMARK  227  A    between atoms: _551  and  _552
REMARK  228  A    between atoms: _561  and  _563
REMARK  229  A    between atoms: _563  and  _564
REMARK  230  A    between atoms: _563  and  _566
REMARK  231  A    between atoms: _566  and  _567
REMARK                            x       y       z     vdW  Elec       q    Type
REMARK                         _______ _______ _______ _____ _____    ______ ____
ROOT
ATOM      1  O   HOH     1     -18.082  27.297 -17.579  0.00  0.00    +0.000 OA
ENDROOT
TORSDOF 0
REMARK  Name = ../refined-set-2016/2r3t/2r3t_pocket.pdb
REMARK  231 active torsions:
REMARK  status: ('A' for Active; 'I' for Inactive)
REMARK    1  A    between atoms: _1  and  _3
REMARK    2  A    between atoms: _3  and  _4
REMARK    3  A    between atoms: _3  and  _6
REMARK    4  A    between atoms: _6  and  _7
REMARK    5  A    between atoms: _7  and  _8
REMARK    6  A    between atoms: _8  and  _9
REMARK    7  A    between atoms: _18  and  _20
REMARK    8  A    between atoms: _20  and  _21
REMARK    9  A    between atoms: _20  and  _23
REMARK   10  A    between atoms: _23  and  _24
REMARK   11  A    between atoms: _27  and  _29
REMARK   12  A    between atoms: _29  and  _30
REMARK   13  A    between atoms: _29  and  _32
REMARK   14  A    between atoms: _32  and  _33
REMARK   15  A    between atoms: _36  and  _38
REMARK   16  A    between atoms: _38  and  _39
REMARK   17  A    between atoms: _38  and  _41
REMARK   18  A    between atoms: _41  and  _42
REMARK   19  A    between atoms: _45  and  _47
REMARK   20  A    between atoms: _47  and  _48
REMARK   21  A    between atoms: _47  and  _50
REMARK   22  A    between atoms: _50  and  _51
REMARK   23  A    between atoms: _54  and  _56
REMARK   24  A    between atoms: _56  and  _57
REMARK   25  A    between atoms: _59  and  _61
REMARK   26  A    between atoms: _61  and  _62
REMARK   27  A    between atoms: _65  and  _67
REMARK   28  A    between atoms: _67  and  _68
REMARK   29  A    between atoms: _67  and  _70
REMARK   30  A    between atoms: _70  and  _71
REMARK   31  A    between atoms: _74  and  _76
REMARK   32  A    between atoms: _76  and  _77
REMARK   33  A    between atoms: _76  and  _79
REMARK   34  A    between atoms: _79  and  _80
REMARK   35  A    between atoms: _83  and  _85
REMARK   36  A    between atoms: _85  and  _86
REMARK   37  A    between atoms: _85  and  _88
REMARK   38  A    between atoms: _88  and  _89
REMARK   39  A    between atoms: _92  and  _94
REMARK   40  A    between atoms: _94  and  _95
REMARK   41  A    between atoms: _94  and  _97
REMARK   42  A    between atoms: _100  and  _102
REMARK   43  A    between atoms: _102  and  _103
REMARK   44  A    between atoms: _102  and  _105
REMARK   45  A    between atoms: _105  and  _106
REMARK   46  A    between atoms: _106  and  _107
REMARK   47  A    between atoms: _107  and  _108
REMARK   48  A    between atoms: _108  and  _109
REMARK   49  A    between atoms: _113  and  _115
REMARK   50  A    between atoms: _115  and  _116
REMARK   51  A    between atoms: _115  and  _118
REMARK   52  A    between atoms: _118  and  _119
REMARK   53  A    between atoms: _119  and  _120
REMARK   54  A    between atoms: _122  and  _124
REMARK   55  A    between atoms: _124  and  _125
REMARK   56  A    between atoms: _124  and  _127
REMARK   57  A    between atoms: _127  and  _128
REMARK   58  A    between atoms: _131  and  _133
REMARK   59  A    between atoms: _133  and  _134
REMARK   60  A    between atoms: _136  and  _138
REMARK   61  A    between atoms: _138  and  _139
REMARK   62  A    between atoms: _141  and  _143
REMARK   63  A    between atoms: _143  and  _144
REMARK   64  A    between atoms: _143  and  _146
REMARK   65  A    between atoms: _149  and  _151
REMARK   66  A    between atoms: _151  and  _152
REMARK   67  A    between atoms: _154  and  _156
REMARK   68  A    between atoms: _156  and  _157
REMARK   69  A    between atoms: _159  and  _161
REMARK   70  A    between atoms: _161  and  _162
REMARK   71  A    between atoms: _161  and  _164
REMARK   72  A    between atoms: _164  and  _165
REMARK   73  A    between atoms: _171  and  _173
REMARK   74  A    between atoms: _173  and  _174
REMARK   75  A    between atoms: _173  and  _176
REMARK   76  A    between atoms: _176  and  _177
REMARK   77  A    between atoms: _180  and  _182
REMARK   78  A    between atoms: _182  and  _183
REMARK   79  A    between atoms: _182  and  _185
REMARK   80  A    between atoms: _188  and  _190
REMARK   81  A    between atoms: _190  and  _191
REMARK   82  A    between atoms: _190  and  _193
REMARK   83  A    between atoms: _193  and  _194
REMARK   84  A    between atoms: _197  and  _199
REMARK   85  A    between atoms: _199  and  _200
REMARK   86  A    between atoms: _199  and  _202
REMARK   87  A    between atoms: _202  and  _203
REMARK   88  A    between atoms: _207  and  _208
REMARK   89  A    between atoms: _213  and  _215
REMARK   90  A    between atoms: _215  and  _216
REMARK   91  A    between atoms: _215  and  _218
REMARK   92  A    between atoms: _221  and  _223
REMARK   93  A    between atoms: _223  and  _224
REMARK   94  A    between atoms: _223  and  _226
REMARK   95  A    between atoms: _226  and  _227
REMARK   96  A    between atoms: _232  and  _234
REMARK   97  A    between atoms: _234  and  _235
REMARK   98  A    between atoms: _234  and  _237
REMARK   99  A    between atoms: _237  and  _238
REMARK  100  A    between atoms: _241  and  _243
REMARK  101  A    between atoms: _243  and  _244
REMARK  102  A    between atoms: _243  and  _246
REMARK  103  A    between atoms: _246  and  _247
REMARK  104  A    between atoms: _250  and  _252
REMARK  105  A    between atoms: _252  and  _253
REMARK  106  A    between atoms: _255  and  _257
REMARK  107  A    between atoms: _257  and  _258
REMARK  108  A    between atoms: _257  and  _260
REMARK  109  A    between atoms: _260  and  _261
REMARK  110  A    between atoms: _261  and  _262
REMARK  111  A    between atoms: _262  and  _263
REMARK  112  A    between atoms: _272  and  _274
REMARK  113  A    between atoms: _274  and  _275
REMARK  114  A    between atoms: _274  and  _277
REMARK  115  A    between atoms: _277  and  _278
REMARK  116  A    between atoms: _283  and  _285
REMARK  117  A    between atoms: _285  and  _286
REMARK  118  A    between atoms: _285  and  _288
REMARK  119  A    between atoms: _288  and  _289
REMARK  120  A    between atoms: _289  and  _290
REMARK  121  A    between atoms: _290  and  _291
REMARK  122  A    between atoms: _300  and  _302
REMARK  123  A    between atoms: _302  and  _303
REMARK  124  A    between atoms: _302  and  _305
REMARK  125  A    between atoms: _305  and  _306
REMARK  126  A    between atoms: _309  and  _311
REMARK  127  A    between atoms: _311  and  _312
REMARK  128  A    between atoms: _311  and  _314
REMARK  129  A    between atoms: _314  and  _315
REMARK  130  A    between atoms: _318  and  _320
REMARK  131  A    between atoms: _320  and  _321
REMARK  132  A    between atoms: _320  and  _323
REMARK  133  A    between atoms: _323  and  _324
REMARK  134  A    between atoms: _327  and  _329
REMARK  135  A    between atoms: _329  and  _330
REMARK  136  A    between atoms: _329  and  _332
REMARK  137  A    between atoms: _332  and  _333
REMARK  138  A    between atoms: _336  and  _338
REMARK  139  A    between atoms: _338  and  _339
REMARK  140  A    between atoms: _341  and  _343
REMARK  141  A    between atoms: _343  and  _344
REMARK  142  A    between atoms: _347  and  _349
REMARK  143  A    between atoms: _349  and  _350
REMARK  144  A    between atoms: _349  and  _352
REMARK  145  A    between atoms: _352  and  _353
REMARK  146  A    between atoms: _356  and  _358
REMARK  147  A    between atoms: _358  and  _359
REMARK  148  A    between atoms: _358  and  _361
REMARK  149  A    between atoms: _361  and  _362
REMARK  150  A    between atoms: _365  and  _367
REMARK  151  A    between atoms: _367  and  _368
REMARK  152  A    between atoms: _367  and  _370
REMARK  153  A    between atoms: _370  and  _371
REMARK  154  A    between atoms: _374  and  _376
REMARK  155  A    between atoms: _376  and  _377
REMARK  156  A    between atoms: _376  and  _379
REMARK  157  A    between atoms: _382  and  _384
REMARK  158  A    between atoms: _384  and  _385
REMARK  159  A    between atoms: _384  and  _387
REMARK  160  A    between atoms: _387  and  _388
REMARK  161  A    between atoms: _388  and  _389
REMARK  162  A    between atoms: _389  and  _390
REMARK  163  A    between atoms: _390  and  _391
REMARK  164  A    between atoms: _395  and  _397
REMARK  165  A    between atoms: _397  and  _398
REMARK  166  A    between atoms: _397  and  _400
REMARK  167  A    between atoms: _400  and  _401
REMARK  168  A    between atoms: _401  and  _402
REMARK  169  A    between atoms: _404  and  _406
REMARK  170  A    between atoms: _406  and  _407
REMARK  171  A    between atoms: _406  and  _409
REMARK  172  A    between atoms: _409  and  _410
REMARK  173  A    between atoms: _413  and  _415
REMARK  174  A    between atoms: _415  and  _416
REMARK  175  A    between atoms: _418  and  _420
REMARK  176  A    between atoms: _420  and  _421
REMARK  177  A    between atoms: _423  and  _425
REMARK  178  A    between atoms: _425  and  _426
REMARK  179  A    between atoms: _425  and  _428
REMARK  180  A    between atoms: _431  and  _433
REMARK  181  A    between atoms: _433  and  _434
REMARK  182  A    between atoms: _436  and  _438
REMARK  183  A    between atoms: _438  and  _439
REMARK  184  A    between atoms: _441  and  _443
REMARK  185  A    between atoms: _443  and  _444
REMARK  186  A    between atoms: _443  and  _446
REMARK  187  A    between atoms: _446  and  _447
REMARK  188  A    between atoms: _453  and  _455
REMARK  189  A    between atoms: _455  and  _456
REMARK  190  A    between atoms: _455  and  _458
REMARK  191  A    between atoms: _458  and  _459
REMARK  192  A    between atoms: _462  and  _464
REMARK  193  A    between atoms: _464  and  _465
REMARK  194  A    between atoms: _464  and  _467
REMARK  195  A    between atoms: _470  and  _472
REMARK  196  A    between atoms: _472  and  _473
REMARK  197  A    between atoms: _472  and  _475
REMARK  198  A    between atoms: _475  and  _476
REMARK  199  A    between atoms: _480  and  _481
REMARK  200  A    between atoms: _486  and  _488
REMARK  201  A    between atoms: _488  and  _489
REMARK  202  A    between atoms: _488  and  _491
REMARK  203  A    between atoms: _491  and  _492
REMARK  204  A    between atoms: _496  and  _497
REMARK  205  A    between atoms: _502  and  _504
REMARK  206  A    between atoms: _504  and  _505
REMARK  207  A    between atoms: _504  and  _507
REMARK  208  A    between atoms: _510  and  _512
REMARK  209  A    between atoms: _512  and  _513
REMARK  210  A    between atoms: _512  and  _515
REMARK  211  A    between atoms: _515  and  _516
REMARK  212  A    between atoms: _521  and  _523
REMARK  213  A    between atoms: _523  and  _524
REMARK  214  A    between atoms: _523  and  _526
REMARK  215  A    between atoms: _526  and  _527
REMARK  216  A    between atoms: _530  and  _532
REMARK  217  A    between atoms: _532  and  _533
REMARK  218  A    between atoms: _532  and  _535
REMARK  219  A    between atoms: _535  and  _536
REMARK  220  A    between atoms: _539  and  _541
REMARK  221  A    between atoms: _541  and  _542
REMARK  222  A    between atoms: _544  and  _546
REMARK  223  A    between atoms: _546  and  _547
REMARK  224  A    between atoms: _546  and  _549
REMARK  225  A    between atoms: _549  and  _550
REMARK  226  A    between atoms: _550  and  _551
REMARK  227  A    between atoms: _551  and  _552
REMARK  228  A    between atoms: _561  and  _563
REMARK  229  A    between atoms: _563  and  _564
REMARK  230  A    between atoms: _563  and  _566
REMARK  231  A    between atoms: _566  and  _567
REMARK                            x       y       z     vdW  Elec       q    Type
REMARK                         _______ _______ _______ _____ _____    ______ ____
ROOT
ATOM      1  O   HOH     1     -13.148  27.956  -9.751  0.00  0.00    +0.000 OA
ENDROOT
TORSDOF 0
REMARK  Name = ../refined-set-2016/2r3t/2r3t_pocket.pdb
REMARK  231 active torsions:
REMARK  status: ('A' for Active; 'I' for Inactive)
REMARK    1  A    between atoms: _1  and  _3
REMARK    2  A    between atoms: _3  and  _4
REMARK    3  A    between atoms: _3  and  _6
REMARK    4  A    between atoms: _6  and  _7
REMARK    5  A    between atoms: _7  and  _8
REMARK    6  A    between atoms: _8  and  _9
REMARK    7  A    between atoms: _18  and  _20
REMARK    8  A    between atoms: _20  and  _21
REMARK    9  A    between atoms: _20  and  _23
REMARK   10  A    between atoms: _23  and  _24
REMARK   11  A    between atoms: _27  and  _29
REMARK   12  A    between atoms: _29  and  _30
REMARK   13  A    between atoms: _29  and  _32
REMARK   14  A    between atoms: _32  and  _33
REMARK   15  A    between atoms: _36  and  _38
REMARK   16  A    between atoms: _38  and  _39
REMARK   17  A    between atoms: _38  and  _41
REMARK   18  A    between atoms: _41  and  _42
REMARK   19  A    between atoms: _45  and  _47
REMARK   20  A    between atoms: _47  and  _48
REMARK   21  A    between atoms: _47  and  _50
REMARK   22  A    between atoms: _50  and  _51
REMARK   23  A    between atoms: _54  and  _56
REMARK   24  A    between atoms: _56  and  _57
REMARK   25  A    between atoms: _59  and  _61
REMARK   26  A    between atoms: _61  and  _62
REMARK   27  A    between atoms: _65  and  _67
REMARK   28  A    between atoms: _67  and  _68
REMARK   29  A    between atoms: _67  and  _70
REMARK   30  A    between atoms: _70  and  _71
REMARK   31  A    between atoms: _74  and  _76
REMARK   32  A    between atoms: _76  and  _77
REMARK   33  A    between atoms: _76  and  _79
REMARK   34  A    between atoms: _79  and  _80
REMARK   35  A    between atoms: _83  and  _85
REMARK   36  A    between atoms: _85  and  _86
REMARK   37  A    between atoms: _85  and  _88
REMARK   38  A    between atoms: _88  and  _89
REMARK   39  A    between atoms: _92  and  _94
REMARK   40  A    between atoms: _94  and  _95
REMARK   41  A    between atoms: _94  and  _97
REMARK   42  A    between atoms: _100  and  _102
REMARK   43  A    between atoms: _102  and  _103
REMARK   44  A    between atoms: _102  and  _105
REMARK   45  A    between atoms: _105  and  _106
REMARK   46  A    between atoms: _106  and  _107
REMARK   47  A    between atoms: _107  and  _108
REMARK   48  A    between atoms: _108  and  _109
REMARK   49  A    between atoms: _113  and  _115
REMARK   50  A    between atoms: _115  and  _116
REMARK   51  A    between atoms: _115  and  _118
REMARK   52  A    between atoms: _118  and  _119
REMARK   53  A    between atoms: _119  and  _120
REMARK   54  A    between atoms: _122  and  _124
REMARK   55  A    between atoms: _124  and  _125
REMARK   56  A    between atoms: _124  and  _127
REMARK   57  A    between atoms: _127  and  _128
REMARK   58  A    between atoms: _131  and  _133
REMARK   59  A    between atoms: _133  and  _134
REMARK   60  A    between atoms: _136  and  _138
REMARK   61  A    between atoms: _138  and  _139
REMARK   62  A    between atoms: _141  and  _143
REMARK   63  A    between atoms: _143  and  _144
REMARK   64  A    between atoms: _143  and  _146
REMARK   65  A    between atoms: _149  and  _151
REMARK   66  A    between atoms: _151  and  _152
REMARK   67  A    between atoms: _154  and  _156
REMARK   68  A    between atoms: _156  and  _157
REMARK   69  A    between atoms: _159  and  _161
REMARK   70  A    between atoms: _161  and  _162
REMARK   71  A    between atoms: _161  and  _164
REMARK   72  A    between atoms: _164  and  _165
REMARK   73  A    between atoms: _171  and  _173
REMARK   74  A    between atoms: _173  and  _174
REMARK   75  A    between atoms: _173  and  _176
REMARK   76  A    between atoms: _176  and  _177
REMARK   77  A    between atoms: _180  and  _182
REMARK   78  A    between atoms: _182  and  _183
REMARK   79  A    between atoms: _182  and  _185
REMARK   80  A    between atoms: _188  and  _190
REMARK   81  A    between atoms: _190  and  _191
REMARK   82  A    between atoms: _190  and  _193
REMARK   83  A    between atoms: _193  and  _194
REMARK   84  A    between atoms: _197  and  _199
REMARK   85  A    between atoms: _199  and  _200
REMARK   86  A    between atoms: _199  and  _202
REMARK   87  A    between atoms: _202  and  _203
REMARK   88  A    between atoms: _207  and  _208
REMARK   89  A    between atoms: _213  and  _215
REMARK   90  A    between atoms: _215  and  _216
REMARK   91  A    between atoms: _215  and  _218
REMARK   92  A    between atoms: _221  and  _223
REMARK   93  A    between atoms: _223  and  _224
REMARK   94  A    between atoms: _223  and  _226
REMARK   95  A    between atoms: _226  and  _227
REMARK   96  A    between atoms: _232  and  _234
REMARK   97  A    between atoms: _234  and  _235
REMARK   98  A    between atoms: _234  and  _237
REMARK   99  A    between atoms: _237  and  _238
REMARK  100  A    between atoms: _241  and  _243
REMARK  101  A    between atoms: _243  and  _244
REMARK  102  A    between atoms: _243  and  _246
REMARK  103  A    between atoms: _246  and  _247
REMARK  104  A    between atoms: _250  and  _252
REMARK  105  A    between atoms: _252  and  _253
REMARK  106  A    between atoms: _255  and  _257
REMARK  107  A    between atoms: _257  and  _258
REMARK  108  A    between atoms: _257  and  _260
REMARK  109  A    between atoms: _260  and  _261
REMARK  110  A    between atoms: _261  and  _262
REMARK  111  A    between atoms: _262  and  _263
REMARK  112  A    between atoms: _272  and  _274
REMARK  113  A    between atoms: _274  and  _275
REMARK  114  A    between atoms: _274  and  _277
REMARK  115  A    between atoms: _277  and  _278
REMARK  116  A    between atoms: _283  and  _285
REMARK  117  A    between atoms: _285  and  _286
REMARK  118  A    between atoms: _285  and  _288
REMARK  119  A    between atoms: _288  and  _289
REMARK  120  A    between atoms: _289  and  _290
REMARK  121  A    between atoms: _290  and  _291
REMARK  122  A    between atoms: _300  and  _302
REMARK  123  A    between atoms: _302  and  _303
REMARK  124  A    between atoms: _302  and  _305
REMARK  125  A    between atoms: _305  and  _306
REMARK  126  A    between atoms: _309  and  _311
REMARK  127  A    between atoms: _311  and  _312
REMARK  128  A    between atoms: _311  and  _314
REMARK  129  A    between atoms: _314  and  _315
REMARK  130  A    between atoms: _318  and  _320
REMARK  131  A    between atoms: _320  and  _321
REMARK  132  A    between atoms: _320  and  _323
REMARK  133  A    between atoms: _323  and  _324
REMARK  134  A    between atoms: _327  and  _329
REMARK  135  A    between atoms: _329  and  _330
REMARK  136  A    between atoms: _329  and  _332
REMARK  137  A    between atoms: _332  and  _333
REMARK  138  A    between atoms: _336  and  _338
REMARK  139  A    between atoms: _338  and  _339
REMARK  140  A    between atoms: _341  and  _343
REMARK  141  A    between atoms: _343  and  _344
REMARK  142  A    between atoms: _347  and  _349
REMARK  143  A    between atoms: _349  and  _350
REMARK  144  A    between atoms: _349  and  _352
REMARK  145  A    between atoms: _352  and  _353
REMARK  146  A    between atoms: _356  and  _358
REMARK  147  A    between atoms: _358  and  _359
REMARK  148  A    between atoms: _358  and  _361
REMARK  149  A    between atoms: _361  and  _362
REMARK  150  A    between atoms: _365  and  _367
REMARK  151  A    between atoms: _367  and  _368
REMARK  152  A    between atoms: _367  and  _370
REMARK  153  A    between atoms: _370  and  _371
REMARK  154  A    between atoms: _374  and  _376
REMARK  155  A    between atoms: _376  and  _377
REMARK  156  A    between atoms: _376  and  _379
REMARK  157  A    between atoms: _382  and  _384
REMARK  158  A    between atoms: _384  and  _385
REMARK  159  A    between atoms: _384  and  _387
REMARK  160  A    between atoms: _387  and  _388
REMARK  161  A    between atoms: _388  and  _389
REMARK  162  A    between atoms: _389  and  _390
REMARK  163  A    between atoms: _390  and  _391
REMARK  164  A    between atoms: _395  and  _397
REMARK  165  A    between atoms: _397  and  _398
REMARK  166  A    between atoms: _397  and  _400
REMARK  167  A    between atoms: _400  and  _401
REMARK  168  A    between atoms: _401  and  _402
REMARK  169  A    between atoms: _404  and  _406
REMARK  170  A    between atoms: _406  and  _407
REMARK  171  A    between atoms: _406  and  _409
REMARK  172  A    between atoms: _409  and  _410
REMARK  173  A    between atoms: _413  and  _415
REMARK  174  A    between atoms: _415  and  _416
REMARK  175  A    between atoms: _418  and  _420
REMARK  176  A    between atoms: _420  and  _421
REMARK  177  A    between atoms: _423  and  _425
REMARK  178  A    between atoms: _425  and  _426
REMARK  179  A    between atoms: _425  and  _428
REMARK  180  A    between atoms: _431  and  _433
REMARK  181  A    between atoms: _433  and  _434
REMARK  182  A    between atoms: _436  and  _438
REMARK  183  A    between atoms: _438  and  _439
REMARK  184  A    between atoms: _441  and  _443
REMARK  185  A    between atoms: _443  and  _444
REMARK  186  A    between atoms: _443  and  _446
REMARK  187  A    between atoms: _446  and  _447
REMARK  188  A    between atoms: _453  and  _455
REMARK  189  A    between atoms: _455  and  _456
REMARK  190  A    between atoms: _455  and  _458
REMARK  191  A    between atoms: _458  and  _459
REMARK  192  A    between atoms: _462  and  _464
REMARK  193  A    between atoms: _464  and  _465
REMARK  194  A    between atoms: _464  and  _467
REMARK  195  A    between atoms: _470  and  _472
REMARK  196  A    between atoms: _472  and  _473
REMARK  197  A    between atoms: _472  and  _475
REMARK  198  A    between atoms: _475  and  _476
REMARK  199  A    between atoms: _480  and  _481
REMARK  200  A    between atoms: _486  and  _488
REMARK  201  A    between atoms: _488  and  _489
REMARK  202  A    between atoms: _488  and  _491
REMARK  203  A    between atoms: _491  and  _492
REMARK  204  A    between atoms: _496  and  _497
REMARK  205  A    between atoms: _502  and  _504
REMARK  206  A    between atoms: _504  and  _505
REMARK  207  A    between atoms: _504  and  _507
REMARK  208  A    between atoms: _510  and  _512
REMARK  209  A    between atoms: _512  and  _513
REMARK  210  A    between atoms: _512  and  _515
REMARK  211  A    between atoms: _515  and  _516
REMARK  212  A    between atoms: _521  and  _523
REMARK  213  A    between atoms: _523  and  _524
REMARK  214  A    between atoms: _523  and  _526
REMARK  215  A    between atoms: _526  and  _527
REMARK  216  A    between atoms: _530  and  _532
REMARK  217  A    between atoms: _532  and  _533
REMARK  218  A    between atoms: _532  and  _535
REMARK  219  A    between atoms: _535  and  _536
REMARK  220  A    between atoms: _539  and  _541
REMARK  221  A    between atoms: _541  and  _542
REMARK  222  A    between atoms: _544  and  _546
REMARK  223  A    between atoms: _546  and  _547
REMARK  224  A    between atoms: _546  and  _549
REMARK  225  A    between atoms: _549  and  _550
REMARK  226  A    between atoms: _550  and  _551
REMARK  227  A    between atoms: _551  and  _552
REMARK  228  A    between atoms: _561  and  _563
REMARK  229  A    between atoms: _563  and  _564
REMARK  230  A    between atoms: _563  and  _566
REMARK  231  A    between atoms: _566  and  _567
REMARK                            x       y       z     vdW  Elec       q    Type
REMARK                         _______ _______ _______ _____ _____    ______ ____
ROOT
ATOM      1  O   HOH     1     -21.764  27.207 -25.762  0.00  0.00    +0.000 OA
ENDROOT
TORSDOF 0
REMARK  Name = ../refined-set-2016/2r3t/2r3t_pocket.pdb
REMARK  231 active torsions:
REMARK  status: ('A' for Active; 'I' for Inactive)
REMARK    1  A    between atoms: _1  and  _3
REMARK    2  A    between atoms: _3  and  _4
REMARK    3  A    between atoms: _3  and  _6
REMARK    4  A    between atoms: _6  and  _7
REMARK    5  A    between atoms: _7  and  _8
REMARK    6  A    between atoms: _8  and  _9
REMARK    7  A    between atoms: _18  and  _20
REMARK    8  A    between atoms: _20  and  _21
REMARK    9  A    between atoms: _20  and  _23
REMARK   10  A    between atoms: _23  and  _24
REMARK   11  A    between atoms: _27  and  _29
REMARK   12  A    between atoms: _29  and  _30
REMARK   13  A    between atoms: _29  and  _32
REMARK   14  A    between atoms: _32  and  _33
REMARK   15  A    between atoms: _36  and  _38
REMARK   16  A    between atoms: _38  and  _39
REMARK   17  A    between atoms: _38  and  _41
REMARK   18  A    between atoms: _41  and  _42
REMARK   19  A    between atoms: _45  and  _47
REMARK   20  A    between atoms: _47  and  _48
REMARK   21  A    between atoms: _47  and  _50
REMARK   22  A    between atoms: _50  and  _51
REMARK   23  A    between atoms: _54  and  _56
REMARK   24  A    between atoms: _56  and  _57
REMARK   25  A    between atoms: _59  and  _61
REMARK   26  A    between atoms: _61  and  _62
REMARK   27  A    between atoms: _65  and  _67
REMARK   28  A    between atoms: _67  and  _68
REMARK   29  A    between atoms: _67  and  _70
REMARK   30  A    between atoms: _70  and  _71
REMARK   31  A    between atoms: _74  and  _76
REMARK   32  A    between atoms: _76  and  _77
REMARK   33  A    between atoms: _76  and  _79
REMARK   34  A    between atoms: _79  and  _80
REMARK   35  A    between atoms: _83  and  _85
REMARK   36  A    between atoms: _85  and  _86
REMARK   37  A    between atoms: _85  and  _88
REMARK   38  A    between atoms: _88  and  _89
REMARK   39  A    between atoms: _92  and  _94
REMARK   40  A    between atoms: _94  and  _95
REMARK   41  A    between atoms: _94  and  _97
REMARK   42  A    between atoms: _100  and  _102
REMARK   43  A    between atoms: _102  and  _103
REMARK   44  A    between atoms: _102  and  _105
REMARK   45  A    between atoms: _105  and  _106
REMARK   46  A    between atoms: _106  and  _107
REMARK   47  A    between atoms: _107  and  _108
REMARK   48  A    between atoms: _108  and  _109
REMARK   49  A    between atoms: _113  and  _115
REMARK   50  A    between atoms: _115  and  _116
REMARK   51  A    between atoms: _115  and  _118
REMARK   52  A    between atoms: _118  and  _119
REMARK   53  A    between atoms: _119  and  _120
REMARK   54  A    between atoms: _122  and  _124
REMARK   55  A    between atoms: _124  and  _125
REMARK   56  A    between atoms: _124  and  _127
REMARK   57  A    between atoms: _127  and  _128
REMARK   58  A    between atoms: _131  and  _133
REMARK   59  A    between atoms: _133  and  _134
REMARK   60  A    between atoms: _136  and  _138
REMARK   61  A    between atoms: _138  and  _139
REMARK   62  A    between atoms: _141  and  _143
REMARK   63  A    between atoms: _143  and  _144
REMARK   64  A    between atoms: _143  and  _146
REMARK   65  A    between atoms: _149  and  _151
REMARK   66  A    between atoms: _151  and  _152
REMARK   67  A    between atoms: _154  and  _156
REMARK   68  A    between atoms: _156  and  _157
REMARK   69  A    between atoms: _159  and  _161
REMARK   70  A    between atoms: _161  and  _162
REMARK   71  A    between atoms: _161  and  _164
REMARK   72  A    between atoms: _164  and  _165
REMARK   73  A    between atoms: _171  and  _173
REMARK   74  A    between atoms: _173  and  _174
REMARK   75  A    between atoms: _173  and  _176
REMARK   76  A    between atoms: _176  and  _177
REMARK   77  A    between atoms: _180  and  _182
REMARK   78  A    between atoms: _182  and  _183
REMARK   79  A    between atoms: _182  and  _185
REMARK   80  A    between atoms: _188  and  _190
REMARK   81  A    between atoms: _190  and  _191
REMARK   82  A    between atoms: _190  and  _193
REMARK   83  A    between atoms: _193  and  _194
REMARK   84  A    between atoms: _197  and  _199
REMARK   85  A    between atoms: _199  and  _200
REMARK   86  A    between atoms: _199  and  _202
REMARK   87  A    between atoms: _202  and  _203
REMARK   88  A    between atoms: _207  and  _208
REMARK   89  A    between atoms: _213  and  _215
REMARK   90  A    between atoms: _215  and  _216
REMARK   91  A    between atoms: _215  and  _218
REMARK   92  A    between atoms: _221  and  _223
REMARK   93  A    between atoms: _223  and  _224
REMARK   94  A    between atoms: _223  and  _226
REMARK   95  A    between atoms: _226  and  _227
REMARK   96  A    between atoms: _232  and  _234
REMARK   97  A    between atoms: _234  and  _235
REMARK   98  A    between atoms: _234  and  _237
REMARK   99  A    between atoms: _237  and  _238
REMARK  100  A    between atoms: _241  and  _243
REMARK  101  A    between atoms: _243  and  _244
REMARK  102  A    between atoms: _243  and  _246
REMARK  103  A    between atoms: _246  and  _247
REMARK  104  A    between atoms: _250  and  _252
REMARK  105  A    between atoms: _252  and  _253
REMARK  106  A    between atoms: _255  and  _257
REMARK  107  A    between atoms: _257  and  _258
REMARK  108  A    between atoms: _257  and  _260
REMARK  109  A    between atoms: _260  and  _261
REMARK  110  A    between atoms: _261  and  _262
REMARK  111  A    between atoms: _262  and  _263
REMARK  112  A    between atoms: _272  and  _274
REMARK  113  A    between atoms: _274  and  _275
REMARK  114  A    between atoms: _274  and  _277
REMARK  115  A    between atoms: _277  and  _278
REMARK  116  A    between atoms: _283  and  _285
REMARK  117  A    between atoms: _285  and  _286
REMARK  118  A    between atoms: _285  and  _288
REMARK  119  A    between atoms: _288  and  _289
REMARK  120  A    between atoms: _289  and  _290
REMARK  121  A    between atoms: _290  and  _291
REMARK  122  A    between atoms: _300  and  _302
REMARK  123  A    between atoms: _302  and  _303
REMARK  124  A    between atoms: _302  and  _305
REMARK  125  A    between atoms: _305  and  _306
REMARK  126  A    between atoms: _309  and  _311
REMARK  127  A    between atoms: _311  and  _312
REMARK  128  A    between atoms: _311  and  _314
REMARK  129  A    between atoms: _314  and  _315
REMARK  130  A    between atoms: _318  and  _320
REMARK  131  A    between atoms: _320  and  _321
REMARK  132  A    between atoms: _320  and  _323
REMARK  133  A    between atoms: _323  and  _324
REMARK  134  A    between atoms: _327  and  _329
REMARK  135  A    between atoms: _329  and  _330
REMARK  136  A    between atoms: _329  and  _332
REMARK  137  A    between atoms: _332  and  _333
REMARK  138  A    between atoms: _336  and  _338
REMARK  139  A    between atoms: _338  and  _339
REMARK  140  A    between atoms: _341  and  _343
REMARK  141  A    between atoms: _343  and  _344
REMARK  142  A    between atoms: _347  and  _349
REMARK  143  A    between atoms: _349  and  _350
REMARK  144  A    between atoms: _349  and  _352
REMARK  145  A    between atoms: _352  and  _353
REMARK  146  A    between atoms: _356  and  _358
REMARK  147  A    between atoms: _358  and  _359
REMARK  148  A    between atoms: _358  and  _361
REMARK  149  A    between atoms: _361  and  _362
REMARK  150  A    between atoms: _365  and  _367
REMARK  151  A    between atoms: _367  and  _368
REMARK  152  A    between atoms: _367  and  _370
REMARK  153  A    between atoms: _370  and  _371
REMARK  154  A    between atoms: _374  and  _376
REMARK  155  A    between atoms: _376  and  _377
REMARK  156  A    between atoms: _376  and  _379
REMARK  157  A    between atoms: _382  and  _384
REMARK  158  A    between atoms: _384  and  _385
REMARK  159  A    between atoms: _384  and  _387
REMARK  160  A    between atoms: _387  and  _388
REMARK  161  A    between atoms: _388  and  _389
REMARK  162  A    between atoms: _389  and  _390
REMARK  163  A    between atoms: _390  and  _391
REMARK  164  A    between atoms: _395  and  _397
REMARK  165  A    between atoms: _397  and  _398
REMARK  166  A    between atoms: _397  and  _400
REMARK  167  A    between atoms: _400  and  _401
REMARK  168  A    between atoms: _401  and  _402
REMARK  169  A    between atoms: _404  and  _406
REMARK  170  A    between atoms: _406  and  _407
REMARK  171  A    between atoms: _406  and  _409
REMARK  172  A    between atoms: _409  and  _410
REMARK  173  A    between atoms: _413  and  _415
REMARK  174  A    between atoms: _415  and  _416
REMARK  175  A    between atoms: _418  and  _420
REMARK  176  A    between atoms: _420  and  _421
REMARK  177  A    between atoms: _423  and  _425
REMARK  178  A    between atoms: _425  and  _426
REMARK  179  A    between atoms: _425  and  _428
REMARK  180  A    between atoms: _431  and  _433
REMARK  181  A    between atoms: _433  and  _434
REMARK  182  A    between atoms: _436  and  _438
REMARK  183  A    between atoms: _438  and  _439
REMARK  184  A    between atoms: _441  and  _443
REMARK  185  A    between atoms: _443  and  _444
REMARK  186  A    between atoms: _443  and  _446
REMARK  187  A    between atoms: _446  and  _447
REMARK  188  A    between atoms: _453  and  _455
REMARK  189  A    between atoms: _455  and  _456
REMARK  190  A    between atoms: _455  and  _458
REMARK  191  A    between atoms: _458  and  _459
REMARK  192  A    between atoms: _462  and  _464
REMARK  193  A    between atoms: _464  and  _465
REMARK  194  A    between atoms: _464  and  _467
REMARK  195  A    between atoms: _470  and  _472
REMARK  196  A    between atoms: _472  and  _473
REMARK  197  A    between atoms: _472  and  _475
REMARK  198  A    between atoms: _475  and  _476
REMARK  199  A    between atoms: _480  and  _481
REMARK  200  A    between atoms: _486  and  _488
REMARK  201  A    between atoms: _488  and  _489
REMARK  202  A    between atoms: _488  and  _491
REMARK  203  A    between atoms: _491  and  _492
REMARK  204  A    between atoms: _496  and  _497
REMARK  205  A    between atoms: _502  and  _504
REMARK  206  A    between atoms: _504  and  _505
REMARK  207  A    between atoms: _504  and  _507
REMARK  208  A    between atoms: _510  and  _512
REMARK  209  A    between atoms: _512  and  _513
REMARK  210  A    between atoms: _512  and  _515
REMARK  211  A    between atoms: _515  and  _516
REMARK  212  A    between atoms: _521  and  _523
REMARK  213  A    between atoms: _523  and  _524
REMARK  214  A    between atoms: _523  and  _526
REMARK  215  A    between atoms: _526  and  _527
REMARK  216  A    between atoms: _530  and  _532
REMARK  217  A    between atoms: _532  and  _533
REMARK  218  A    between atoms: _532  and  _535
REMARK  219  A    between atoms: _535  and  _536
REMARK  220  A    between atoms: _539  and  _541
REMARK  221  A    between atoms: _541  and  _542
REMARK  222  A    between atoms: _544  and  _546
REMARK  223  A    between atoms: _546  and  _547
REMARK  224  A    between atoms: _546  and  _549
REMARK  225  A    between atoms: _549  and  _550
REMARK  226  A    between atoms: _550  and  _551
REMARK  227  A    between atoms: _551  and  _552
REMARK  228  A    between atoms: _561  and  _563
REMARK  229  A    between atoms: _563  and  _564
REMARK  230  A    between atoms: _563  and  _566
REMARK  231  A    between atoms: _566  and  _567
REMARK                            x       y       z     vdW  Elec       q    Type
REMARK                         _______ _______ _______ _____ _____    ______ ____
ROOT
ATOM      1  O   HOH     1      -3.687  12.107 -21.198  0.00  0.00    +0.000 OA
ENDROOT
TORSDOF 0
