REMARK  Name = ../refined-set-2016/4wn5/4wn5_pocket.pdb
REMARK  242 active torsions:
REMARK  status: ('A' for Active; 'I' for Inactive)
REMARK    1  A    between atoms: _1  and  _5
REMARK    2  A    between atoms: _5  and  _6
REMARK    3  A    between atoms: _5  and  _8
REMARK    4  A    between atoms: _8  and  _9
REMARK    5  A    between atoms: _9  and  _10
REMARK    6  A    between atoms: _10  and  _11
REMARK    7  A    between atoms: _20  and  _22
REMARK    8  A    between atoms: _22  and  _23
REMARK    9  A    between atoms: _25  and  _27
REMARK   10  A    between atoms: _27  and  _28
REMARK   11  A    between atoms: _31  and  _33
REMARK   12  A    between atoms: _33  and  _34
REMARK   13  A    between atoms: _33  and  _36
REMARK   14  A    between atoms: _36  and  _37
REMARK   15  A    between atoms: _43  and  _45
REMARK   16  A    between atoms: _45  and  _46
REMARK   17  A    between atoms: _45  and  _48
REMARK   18  A    between atoms: _48  and  _49
REMARK   19  A    between atoms: _52  and  _54
REMARK   20  A    between atoms: _54  and  _55
REMARK   21  A    between atoms: _54  and  _57
REMARK   22  A    between atoms: _57  and  _58
REMARK   23  A    between atoms: _60  and  _62
REMARK   24  A    between atoms: _62  and  _63
REMARK   25  A    between atoms: _62  and  _65
REMARK   26  A    between atoms: _65  and  _66
REMARK   27  A    between atoms: _66  and  _67
REMARK   28  A    between atoms: _67  and  _68
REMARK   29  A    between atoms: _77  and  _79
REMARK   30  A    between atoms: _79  and  _80
REMARK   31  A    between atoms: _79  and  _82
REMARK   32  A    between atoms: _82  and  _83
REMARK   33  A    between atoms: _88  and  _90
REMARK   34  A    between atoms: _90  and  _91
REMARK   35  A    between atoms: _90  and  _93
REMARK   36  A    between atoms: _93  and  _94
REMARK   37  A    between atoms: _94  and  _95
REMARK   38  A    between atoms: _97  and  _99
REMARK   39  A    between atoms: _99  and  _100
REMARK   40  A    between atoms: _99  and  _102
REMARK   41  A    between atoms: _102  and  _103
REMARK   42  A    between atoms: _109  and  _111
REMARK   43  A    between atoms: _111  and  _112
REMARK   44  A    between atoms: _111  and  _114
REMARK   45  A    between atoms: _114  and  _115
REMARK   46  A    between atoms: _120  and  _121
REMARK   47  A    between atoms: _123  and  _125
REMARK   48  A    between atoms: _125  and  _126
REMARK   49  A    between atoms: _125  and  _128
REMARK   50  A    between atoms: _130  and  _132
REMARK   51  A    between atoms: _132  and  _133
REMARK   52  A    between atoms: _132  and  _135
REMARK   53  A    between atoms: _135  and  _136
REMARK   54  A    between atoms: _139  and  _141
REMARK   55  A    between atoms: _141  and  _142
REMARK   56  A    between atoms: _141  and  _144
REMARK   57  A    between atoms: _144  and  _145
REMARK   58  A    between atoms: _145  and  _146
REMARK   59  A    between atoms: _146  and  _147
REMARK   60  A    between atoms: _156  and  _158
REMARK   61  A    between atoms: _158  and  _159
REMARK   62  A    between atoms: _158  and  _161
REMARK   63  A    between atoms: _161  and  _162
REMARK   64  A    between atoms: _165  and  _167
REMARK   65  A    between atoms: _167  and  _168
REMARK   66  A    between atoms: _167  and  _170
REMARK   67  A    between atoms: _170  and  _171
REMARK   68  A    between atoms: _171  and  _172
REMARK   69  A    between atoms: _175  and  _177
REMARK   70  A    between atoms: _177  and  _178
REMARK   71  A    between atoms: _177  and  _180
REMARK   72  A    between atoms: _183  and  _185
REMARK   73  A    between atoms: _185  and  _186
REMARK   74  A    between atoms: _189  and  _191
REMARK   75  A    between atoms: _191  and  _192
REMARK   76  A    between atoms: _191  and  _194
REMARK   77  A    between atoms: _194  and  _195
REMARK   78  A    between atoms: _200  and  _201
REMARK   79  A    between atoms: _203  and  _205
REMARK   80  A    between atoms: _205  and  _206
REMARK   81  A    between atoms: _205  and  _208
REMARK   82  A    between atoms: _208  and  _209
REMARK   83  A    between atoms: _212  and  _214
REMARK   84  A    between atoms: _214  and  _215
REMARK   85  A    between atoms: _214  and  _217
REMARK   86  A    between atoms: _217  and  _218
REMARK   87  A    between atoms: _220  and  _222
REMARK   88  A    between atoms: _222  and  _223
REMARK   89  A    between atoms: _226  and  _228
REMARK   90  A    between atoms: _228  and  _229
REMARK   91  A    between atoms: _228  and  _231
REMARK   92  A    between atoms: _231  and  _232
REMARK   93  A    between atoms: _237  and  _238
REMARK   94  A    between atoms: _240  and  _242
REMARK   95  A    between atoms: _242  and  _243
REMARK   96  A    between atoms: _242  and  _245
REMARK   97  A    between atoms: _245  and  _246
REMARK   98  A    between atoms: _251  and  _252
REMARK   99  A    between atoms: _254  and  _256
REMARK  100  A    between atoms: _256  and  _257
REMARK  101  A    between atoms: _256  and  _259
REMARK  102  A    between atoms: _259  and  _260
REMARK  103  A    between atoms: _263  and  _265
REMARK  104  A    between atoms: _265  and  _266
REMARK  105  A    between atoms: _269  and  _271
REMARK  106  A    between atoms: _271  and  _272
REMARK  107  A    between atoms: _271  and  _274
REMARK  108  A    between atoms: _277  and  _279
REMARK  109  A    between atoms: _279  and  _280
REMARK  110  A    between atoms: _279  and  _282
REMARK  111  A    between atoms: _282  and  _283
REMARK  112  A    between atoms: _285  and  _287
REMARK  113  A    between atoms: _287  and  _288
REMARK  114  A    between atoms: _287  and  _290
REMARK  115  A    between atoms: _290  and  _291
REMARK  116  A    between atoms: _291  and  _292
REMARK  117  A    between atoms: _292  and  _293
REMARK  118  A    between atoms: _293  and  _294
REMARK  119  A    between atoms: _298  and  _300
REMARK  120  A    between atoms: _300  and  _301
REMARK  121  A    between atoms: _300  and  _303
REMARK  122  A    between atoms: _303  and  _304
REMARK  123  A    between atoms: _306  and  _308
REMARK  124  A    between atoms: _308  and  _309
REMARK  125  A    between atoms: _308  and  _311
REMARK  126  A    between atoms: _311  and  _312
REMARK  127  A    between atoms: _315  and  _317
REMARK  128  A    between atoms: _317  and  _318
REMARK  129  A    between atoms: _317  and  _320
REMARK  130  A    between atoms: _320  and  _321
REMARK  131  A    between atoms: _326  and  _328
REMARK  132  A    between atoms: _328  and  _329
REMARK  133  A    between atoms: _328  and  _331
REMARK  134  A    between atoms: _331  and  _332
REMARK  135  A    between atoms: _335  and  _337
REMARK  136  A    between atoms: _337  and  _338
REMARK  137  A    between atoms: _337  and  _340
REMARK  138  A    between atoms: _340  and  _341
REMARK  139  A    between atoms: _344  and  _346
REMARK  140  A    between atoms: _346  and  _347
REMARK  141  A    between atoms: _346  and  _349
REMARK  142  A    between atoms: _349  and  _350
REMARK  143  A    between atoms: _353  and  _355
REMARK  144  A    between atoms: _355  and  _356
REMARK  145  A    between atoms: _355  and  _358
REMARK  146  A    between atoms: _358  and  _359
REMARK  147  A    between atoms: _359  and  _360
REMARK  148  A    between atoms: _365  and  _367
REMARK  149  A    between atoms: _367  and  _368
REMARK  150  A    between atoms: _371  and  _373
REMARK  151  A    between atoms: _373  and  _374
REMARK  152  A    between atoms: _373  and  _376
REMARK  153  A    between atoms: _379  and  _381
REMARK  154  A    between atoms: _381  and  _382
REMARK  155  A    between atoms: _381  and  _384
REMARK  156  A    between atoms: _384  and  _385
REMARK  157  A    between atoms: _388  and  _390
REMARK  158  A    between atoms: _390  and  _391
REMARK  159  A    between atoms: _393  and  _395
REMARK  160  A    between atoms: _395  and  _396
REMARK  161  A    between atoms: _395  and  _398
REMARK  162  A    between atoms: _398  and  _399
REMARK  163  A    between atoms: _404  and  _405
REMARK  164  A    between atoms: _407  and  _409
REMARK  165  A    between atoms: _409  and  _410
REMARK  166  A    between atoms: _409  and  _412
REMARK  167  A    between atoms: _412  and  _413
REMARK  168  A    between atoms: _413  and  _414
REMARK  169  A    between atoms: _414  and  _415
REMARK  170  A    between atoms: _424  and  _426
REMARK  171  A    between atoms: _426  and  _427
REMARK  172  A    between atoms: _426  and  _429
REMARK  173  A    between atoms: _429  and  _430
REMARK  174  A    between atoms: _436  and  _438
REMARK  175  A    between atoms: _438  and  _439
REMARK  176  A    between atoms: _438  and  _441
REMARK  177  A    between atoms: _441  and  _442
REMARK  178  A    between atoms: _445  and  _447
REMARK  179  A    between atoms: _447  and  _448
REMARK  180  A    between atoms: _447  and  _450
REMARK  181  A    between atoms: _450  and  _451
REMARK  182  A    between atoms: _454  and  _456
REMARK  183  A    between atoms: _456  and  _457
REMARK  184  A    between atoms: _456  and  _459
REMARK  185  A    between atoms: _459  and  _460
REMARK  186  A    between atoms: _470  and  _472
REMARK  187  A    between atoms: _472  and  _473
REMARK  188  A    between atoms: _472  and  _475
REMARK  189  A    between atoms: _475  and  _476
REMARK  190  A    between atoms: _479  and  _481
REMARK  191  A    between atoms: _481  and  _482
REMARK  192  A    between atoms: _481  and  _484
REMARK  193  A    between atoms: _484  and  _485
REMARK  194  A    between atoms: _485  and  _486
REMARK  195  A    between atoms: _491  and  _493
REMARK  196  A    between atoms: _493  and  _494
REMARK  197  A    between atoms: _493  and  _496
REMARK  198  A    between atoms: _496  and  _497
REMARK  199  A    between atoms: _500  and  _502
REMARK  200  A    between atoms: _502  and  _503
REMARK  201  A    between atoms: _502  and  _505
REMARK  202  A    between atoms: _505  and  _506
REMARK  203  A    between atoms: _506  and  _507
REMARK  204  A    between atoms: _512  and  _514
REMARK  205  A    between atoms: _514  and  _515
REMARK  206  A    between atoms: _518  and  _520
REMARK  207  A    between atoms: _520  and  _521
REMARK  208  A    between atoms: _520  and  _523
REMARK  209  A    between atoms: _523  and  _524
REMARK  210  A    between atoms: _527  and  _529
REMARK  211  A    between atoms: _529  and  _530
REMARK  212  A    between atoms: _529  and  _532
REMARK  213  A    between atoms: _532  and  _533
REMARK  214  A    between atoms: _536  and  _538
REMARK  215  A    between atoms: _538  and  _539
REMARK  216  A    between atoms: _538  and  _541
REMARK  217  A    between atoms: _544  and  _546
REMARK  218  A    between atoms: _546  and  _547
REMARK  219  A    between atoms: _546  and  _549
REMARK  220  A    between atoms: _551  and  _553
REMARK  221  A    between atoms: _553  and  _554
REMARK  222  A    between atoms: _553  and  _556
REMARK  223  A    between atoms: _559  and  _561
REMARK  224  A    between atoms: _561  and  _562
REMARK  225  A    between atoms: _561  and  _564
REMARK  226  A    between atoms: _564  and  _565
REMARK  227  A    between atoms: _570  and  _572
REMARK  228  A    between atoms: _572  and  _573
REMARK  229  A    between atoms: _572  and  _575
REMARK  230  A    between atoms: _575  and  _576
REMARK  231  A    between atoms: _582  and  _584
REMARK  232  A    between atoms: _584  and  _585
REMARK  233  A    between atoms: _584  and  _587
REMARK  234  A    between atoms: _587  and  _588
REMARK  235  A    between atoms: _591  and  _593
REMARK  236  A    between atoms: _593  and  _594
REMARK  237  A    between atoms: _593  and  _596
REMARK  238  A    between atoms: _596  and  _597
REMARK  239  A    between atoms: _600  and  _602
REMARK  240  A    between atoms: _602  and  _603
REMARK  241  A    between atoms: _602  and  _605
REMARK  242  A    between atoms: _605  and  _606
REMARK                            x       y       z     vdW  Elec       q    Type
REMARK                         _______ _______ _______ _____ _____    ______ ____
ROOT
ATOM      1  C   PHE A   4      -3.646 -49.841  -7.300  0.00  0.00    +0.241 C 
ATOM      2  N   LEU A   5      -3.531 -51.082  -6.836  0.00  0.00    -0.297 N 
ATOM      3  H   LEU A   5      -4.375 -51.689  -6.796  0.00  0.00    +0.150 HD
ATOM      4  O   PHE A   4      -2.672 -49.096  -7.480  0.00  0.00    -0.273 OA
ENDROOT
BRANCH   2   5
ATOM      5  CA  LEU A   5      -2.246 -51.614  -6.381  0.00  0.00    +0.149 C 
BRANCH   5   6
ATOM      6  C   LEU A   5      -1.680 -52.651  -7.335  0.00  0.00    +0.241 C 
ATOM      7  N   SER A   6      -0.359 -52.809  -7.255  0.00  0.00    -0.295 N 
ATOM      8  H   SER A   6       0.205 -52.074  -6.782  0.00  0.00    +0.150 HD
ATOM      9  O   LEU A   5      -2.400 -53.346  -8.059  0.00  0.00    -0.273 OA
BRANCH   7  10
ATOM     10  CA  SER A   6       0.317 -53.958  -7.799  0.00  0.00    +0.178 C 
BRANCH  10  11
ATOM     11  C   SER A   6       1.415 -54.384  -6.845  0.00  0.00    +0.243 C 
ATOM     12  O   SER A   6       1.847 -53.608  -5.990  0.00  0.00    -0.273 OA
ATOM     13  N   ARG A   7       1.871 -55.617  -7.010  0.00  0.00    -0.297 N 
ATOM     14  H   ARG A   7       1.389 -56.246  -7.683  0.00  0.00    +0.150 HD
BRANCH  13  15
ATOM     15  CA  ARG A   7       3.033 -56.122  -6.275  0.00  0.00    +0.149 C 
BRANCH  15  16
ATOM     16  C   ARG A   7       4.015 -56.700  -7.255  0.00  0.00    +0.241 C 
ATOM     17  N   HIS A   8       5.295 -56.603  -6.908  0.00  0.00    -0.298 N 
ATOM     18  H   HIS A   8       5.531 -56.207  -5.976  0.00  0.00    +0.150 HD
ATOM     19  O   ARG A   7       3.604 -57.230  -8.299  0.00  0.00    -0.273 OA
BRANCH  17  20
ATOM     20  CA  HIS A   8       6.372 -57.026  -7.776  0.00  0.00    +0.143 C 
BRANCH  20  21
ATOM     21  C   HIS A   8       7.501 -57.647  -7.000  0.00  0.00    +0.227 C 
ATOM     22  O   HIS A   8       7.776 -57.265  -5.867  0.00  0.00    -0.286 OA
ENDBRANCH  20  21
BRANCH  20  23
ATOM     23  CB  HIS A   8       6.958 -55.826  -8.533  0.00  0.00    +0.075 C 
BRANCH  23  24
ATOM     24  CG  HIS A   8       5.931 -55.050  -9.284  0.00  0.00    +0.082 A 
ATOM     25  CD2 HIS A   8       4.983 -54.186  -8.845  0.00  0.00    +0.115 A 
ATOM     26  NE2 HIS A   8       4.229 -53.803  -9.924  0.00  0.00    -0.221 NA
ATOM     27  CE1 HIS A   8       4.687 -54.433 -10.989  0.00  0.00    +0.199 A 
ATOM     28  ND1 HIS A   8       5.710 -55.194 -10.633  0.00  0.00    -0.227 NA
ENDBRANCH  23  24
ENDBRANCH  20  23
ENDBRANCH  17  20
ENDBRANCH  15  16
BRANCH  15  29
ATOM     29  CB  ARG A   7       2.648 -57.193  -5.255  0.00  0.00    +0.033 C 
BRANCH  29  30
ATOM     30  CG  ARG A   7       1.782 -56.689  -4.131  0.00  0.00    +0.045 C 
BRANCH  30  31
ATOM     31  CD  ARG A   7       1.584 -57.748  -3.082  0.00  0.00    +0.174 C 
BRANCH  31  32
ATOM     32  NE  ARG A   7       2.838 -58.208  -2.499  0.00  0.00    -0.265 N 
ATOM     33  CZ  ARG A   7       2.940 -59.105  -1.515  0.00  0.00    +0.342 C 
ATOM     34  NH2 ARG A   7       1.865 -59.631  -0.981  0.00  0.00    -0.292 N 
ATOM     35 HH21 ARG A   7       1.953 -60.329  -0.215  0.00  0.00    +0.255 HD
ATOM     36 HH22 ARG A   7       0.924 -59.350  -1.323  0.00  0.00    +0.255 HD
ATOM     37  NH1 ARG A   7       4.125 -59.471  -1.056  0.00  0.00    -0.292 N 
ATOM     38 HH11 ARG A   7       4.192 -60.170  -0.289  0.00  0.00    +0.255 HD
ATOM     39 HH12 ARG A   7       4.990 -59.059  -1.462  0.00  0.00    +0.255 HD
ATOM     40  HE  ARG A   7       3.720 -57.808  -2.878  0.00  0.00    +0.259 HD
ENDBRANCH  31  32
ENDBRANCH  30  31
ENDBRANCH  29  30
ENDBRANCH  15  29
ENDBRANCH  13  15
ENDBRANCH  10  11
BRANCH  10  41
ATOM     41  CB  SER A   6       0.856 -53.705  -9.213  0.00  0.00    +0.166 C 
BRANCH  41  42
ATOM     42  OG  SER A   6       1.872 -52.724  -9.211  0.00  0.00    -0.380 OA
ATOM     43  H   SER A   6       1.508 -51.874  -8.857  0.00  0.00    +0.211 HD
ENDBRANCH  41  42
ENDBRANCH  10  41
ENDBRANCH   7  10
ENDBRANCH   5   6
BRANCH   5  44
ATOM     44  CB  LEU A   5      -2.383 -52.269  -5.000  0.00  0.00    +0.029 C 
BRANCH  44  45
ATOM     45  CG  LEU A   5      -3.021 -51.415  -3.915  0.00  0.00    +0.002 C 
ATOM     46  CD2 LEU A   5      -3.066 -52.206  -2.621  0.00  0.00    +0.000 C 
ATOM     47  CD1 LEU A   5      -2.302 -50.100  -3.712  0.00  0.00    +0.000 C 
ENDBRANCH  44  45
ENDBRANCH   5  44
ENDBRANCH   2   5
BRANCH   1  48
ATOM     48  CA  PHE A   4      -5.071 -49.363  -7.586  0.00  0.00    +0.153 C 
BRANCH  48  51
ATOM     49  C   ALA A   3      -6.081 -48.822  -5.445  0.00  0.00    +0.241 C 
ATOM     50  O   ALA A   3      -6.350 -50.006  -5.213  0.00  0.00    -0.273 OA
ATOM     51  N   PHE A   4      -5.455 -48.425  -6.539  0.00  0.00    -0.297 N 
ATOM     52  H   PHE A   4      -5.230 -47.416  -6.656  0.00  0.00    +0.150 HD
BRANCH  49  53
ATOM     53  CA  ALA A   3      -6.414 -47.726  -4.445  0.00  0.00    +0.149 C 
ATOM     54  CB  ALA A   3      -5.279 -47.591  -3.455  0.00  0.00    +0.031 C 
BRANCH  53  56
ATOM     55  C   GLY A   2      -8.775 -48.247  -4.330  0.00  0.00    +0.243 C 
ATOM     56  N   ALA A   3      -7.614 -48.066  -3.731  0.00  0.00    -0.297 N 
ATOM     57  H   ALA A   3      -7.565 -48.174  -2.698  0.00  0.00    +0.150 HD
ATOM     58  O   GLY A   2      -8.972 -47.983  -5.525  0.00  0.00    -0.273 OA
BRANCH  55  59
ATOM     59  CA  GLY A   2      -9.839 -48.776  -3.426  0.00  0.00    +0.176 C 
BRANCH  59  61
ATOM     60  C   ARG A   1     -11.934 -48.790  -4.668  0.00  0.00    +0.202 C 
ATOM     61  N   GLY A   2     -11.108 -48.201  -3.830  0.00  0.00    -0.298 N 
ATOM     62  H   GLY A   2     -11.379 -47.277  -3.438  0.00  0.00    +0.150 HD
ATOM     63  O   ARG A   1     -11.714 -49.898  -5.156  0.00  0.00    -0.277 OA
BRANCH  60  64
ATOM     64  CA  ARG A   1     -13.214 -48.006  -4.989  0.00  0.00    +0.013 C 
BRANCH  64  65
ATOM     65  N   ARG A   1     -13.160 -47.345  -6.302  0.00  0.00    +0.387 N 
ATOM     66  H1  ARG A   1     -12.363 -46.677  -6.320  0.00  0.00    -0.089 HD
ATOM     67  H2  ARG A   1     -14.049 -46.831  -6.467  0.00  0.00    -0.089 HD
ATOM     68  H3  ARG A   1     -13.030 -48.062  -7.044  0.00  0.00    -0.089 HD
ENDBRANCH  64  65
BRANCH  64  69
ATOM     69  CB  ARG A   1     -14.414 -48.942  -4.889  0.00  0.00    -0.009 C 
BRANCH  69  70
ATOM     70  CG  ARG A   1     -14.604 -49.560  -3.521  0.00  0.00    +0.041 C 
BRANCH  70  71
ATOM     71  CD  ARG A   1     -15.528 -50.811  -3.568  0.00  0.00    +0.174 C 
BRANCH  71  72
ATOM     72  NE  ARG A   1     -15.478 -51.487  -2.278  0.00  0.00    -0.265 N 
ATOM     73  CZ  ARG A   1     -16.009 -50.964  -1.180  0.00  0.00    +0.342 C 
ATOM     74  NH2 ARG A   1     -15.879 -51.577  -0.021  0.00  0.00    -0.292 N 
ATOM     75 HH21 ARG A   1     -16.297 -51.163   0.836  0.00  0.00    +0.255 HD
ATOM     76 HH22 ARG A   1     -15.358 -52.475   0.037  0.00  0.00    +0.255 HD
ATOM     77  NH1 ARG A   1     -16.652 -49.795  -1.242  0.00  0.00    -0.292 N 
ATOM     78 HH11 ARG A   1     -17.068 -49.384  -0.382  0.00  0.00    +0.255 HD
ATOM     79 HH12 ARG A   1     -16.736 -49.295  -2.150  0.00  0.00    +0.255 HD
ATOM     80  HE  ARG A   1     -15.009 -52.413  -2.216  0.00  0.00    +0.259 HD
ENDBRANCH  71  72
ENDBRANCH  70  71
ENDBRANCH  69  70
ENDBRANCH  64  69
ENDBRANCH  60  64
ENDBRANCH  59  61
ENDBRANCH  55  59
ENDBRANCH  53  56
ENDBRANCH  49  53
ENDBRANCH  48  51
BRANCH  48  81
ATOM     81  CB  PHE A   4      -5.163 -48.672  -8.944  0.00  0.00    +0.055 C 
BRANCH  81  82
ATOM     82  CG  PHE A   4      -5.057 -49.593 -10.107  0.00  0.00    -0.020 A 
ATOM     83  CD2 PHE A   4      -3.857 -50.189 -10.447  0.00  0.00    -0.004 A 
ATOM     84  CE2 PHE A   4      -3.760 -51.008 -11.554  0.00  0.00    -0.000 A 
ATOM     85  CZ  PHE A   4      -4.864 -51.228 -12.338  0.00  0.00    -0.000 A 
ATOM     86  CE1 PHE A   4      -6.045 -50.630 -12.023  0.00  0.00    -0.000 A 
ATOM     87  CD1 PHE A   4      -6.146 -49.816 -10.931  0.00  0.00    -0.004 A 
ENDBRANCH  81  82
ENDBRANCH  48  81
ENDBRANCH   1  48
TORSDOF 32
REMARK  Name = ../refined-set-2016/4wn5/4wn5_pocket.pdb
REMARK  242 active torsions:
REMARK  status: ('A' for Active; 'I' for Inactive)
REMARK    1  A    between atoms: _1  and  _5
REMARK    2  A    between atoms: _5  and  _6
REMARK    3  A    between atoms: _5  and  _8
REMARK    4  A    between atoms: _8  and  _9
REMARK    5  A    between atoms: _9  and  _10
REMARK    6  A    between atoms: _10  and  _11
REMARK    7  A    between atoms: _20  and  _22
REMARK    8  A    between atoms: _22  and  _23
REMARK    9  A    between atoms: _25  and  _27
REMARK   10  A    between atoms: _27  and  _28
REMARK   11  A    between atoms: _31  and  _33
REMARK   12  A    between atoms: _33  and  _34
REMARK   13  A    between atoms: _33  and  _36
REMARK   14  A    between atoms: _36  and  _37
REMARK   15  A    between atoms: _43  and  _45
REMARK   16  A    between atoms: _45  and  _46
REMARK   17  A    between atoms: _45  and  _48
REMARK   18  A    between atoms: _48  and  _49
REMARK   19  A    between atoms: _52  and  _54
REMARK   20  A    between atoms: _54  and  _55
REMARK   21  A    between atoms: _54  and  _57
REMARK   22  A    between atoms: _57  and  _58
REMARK   23  A    between atoms: _60  and  _62
REMARK   24  A    between atoms: _62  and  _63
REMARK   25  A    between atoms: _62  and  _65
REMARK   26  A    between atoms: _65  and  _66
REMARK   27  A    between atoms: _66  and  _67
REMARK   28  A    between atoms: _67  and  _68
REMARK   29  A    between atoms: _77  and  _79
REMARK   30  A    between atoms: _79  and  _80
REMARK   31  A    between atoms: _79  and  _82
REMARK   32  A    between atoms: _82  and  _83
REMARK   33  A    between atoms: _88  and  _90
REMARK   34  A    between atoms: _90  and  _91
REMARK   35  A    between atoms: _90  and  _93
REMARK   36  A    between atoms: _93  and  _94
REMARK   37  A    between atoms: _94  and  _95
REMARK   38  A    between atoms: _97  and  _99
REMARK   39  A    between atoms: _99  and  _100
REMARK   40  A    between atoms: _99  and  _102
REMARK   41  A    between atoms: _102  and  _103
REMARK   42  A    between atoms: _109  and  _111
REMARK   43  A    between atoms: _111  and  _112
REMARK   44  A    between atoms: _111  and  _114
REMARK   45  A    between atoms: _114  and  _115
REMARK   46  A    between atoms: _120  and  _121
REMARK   47  A    between atoms: _123  and  _125
REMARK   48  A    between atoms: _125  and  _126
REMARK   49  A    between atoms: _125  and  _128
REMARK   50  A    between atoms: _130  and  _132
REMARK   51  A    between atoms: _132  and  _133
REMARK   52  A    between atoms: _132  and  _135
REMARK   53  A    between atoms: _135  and  _136
REMARK   54  A    between atoms: _139  and  _141
REMARK   55  A    between atoms: _141  and  _142
REMARK   56  A    between atoms: _141  and  _144
REMARK   57  A    between atoms: _144  and  _145
REMARK   58  A    between atoms: _145  and  _146
REMARK   59  A    between atoms: _146  and  _147
REMARK   60  A    between atoms: _156  and  _158
REMARK   61  A    between atoms: _158  and  _159
REMARK   62  A    between atoms: _158  and  _161
REMARK   63  A    between atoms: _161  and  _162
REMARK   64  A    between atoms: _165  and  _167
REMARK   65  A    between atoms: _167  and  _168
REMARK   66  A    between atoms: _167  and  _170
REMARK   67  A    between atoms: _170  and  _171
REMARK   68  A    between atoms: _171  and  _172
REMARK   69  A    between atoms: _175  and  _177
REMARK   70  A    between atoms: _177  and  _178
REMARK   71  A    between atoms: _177  and  _180
REMARK   72  A    between atoms: _183  and  _185
REMARK   73  A    between atoms: _185  and  _186
REMARK   74  A    between atoms: _189  and  _191
REMARK   75  A    between atoms: _191  and  _192
REMARK   76  A    between atoms: _191  and  _194
REMARK   77  A    between atoms: _194  and  _195
REMARK   78  A    between atoms: _200  and  _201
REMARK   79  A    between atoms: _203  and  _205
REMARK   80  A    between atoms: _205  and  _206
REMARK   81  A    between atoms: _205  and  _208
REMARK   82  A    between atoms: _208  and  _209
REMARK   83  A    between atoms: _212  and  _214
REMARK   84  A    between atoms: _214  and  _215
REMARK   85  A    between atoms: _214  and  _217
REMARK   86  A    between atoms: _217  and  _218
REMARK   87  A    between atoms: _220  and  _222
REMARK   88  A    between atoms: _222  and  _223
REMARK   89  A    between atoms: _226  and  _228
REMARK   90  A    between atoms: _228  and  _229
REMARK   91  A    between atoms: _228  and  _231
REMARK   92  A    between atoms: _231  and  _232
REMARK   93  A    between atoms: _237  and  _238
REMARK   94  A    between atoms: _240  and  _242
REMARK   95  A    between atoms: _242  and  _243
REMARK   96  A    between atoms: _242  and  _245
REMARK   97  A    between atoms: _245  and  _246
REMARK   98  A    between atoms: _251  and  _252
REMARK   99  A    between atoms: _254  and  _256
REMARK  100  A    between atoms: _256  and  _257
REMARK  101  A    between atoms: _256  and  _259
REMARK  102  A    between atoms: _259  and  _260
REMARK  103  A    between atoms: _263  and  _265
REMARK  104  A    between atoms: _265  and  _266
REMARK  105  A    between atoms: _269  and  _271
REMARK  106  A    between atoms: _271  and  _272
REMARK  107  A    between atoms: _271  and  _274
REMARK  108  A    between atoms: _277  and  _279
REMARK  109  A    between atoms: _279  and  _280
REMARK  110  A    between atoms: _279  and  _282
REMARK  111  A    between atoms: _282  and  _283
REMARK  112  A    between atoms: _285  and  _287
REMARK  113  A    between atoms: _287  and  _288
REMARK  114  A    between atoms: _287  and  _290
REMARK  115  A    between atoms: _290  and  _291
REMARK  116  A    between atoms: _291  and  _292
REMARK  117  A    between atoms: _292  and  _293
REMARK  118  A    between atoms: _293  and  _294
REMARK  119  A    between atoms: _298  and  _300
REMARK  120  A    between atoms: _300  and  _301
REMARK  121  A    between atoms: _300  and  _303
REMARK  122  A    between atoms: _303  and  _304
REMARK  123  A    between atoms: _306  and  _308
REMARK  124  A    between atoms: _308  and  _309
REMARK  125  A    between atoms: _308  and  _311
REMARK  126  A    between atoms: _311  and  _312
REMARK  127  A    between atoms: _315  and  _317
REMARK  128  A    between atoms: _317  and  _318
REMARK  129  A    between atoms: _317  and  _320
REMARK  130  A    between atoms: _320  and  _321
REMARK  131  A    between atoms: _326  and  _328
REMARK  132  A    between atoms: _328  and  _329
REMARK  133  A    between atoms: _328  and  _331
REMARK  134  A    between atoms: _331  and  _332
REMARK  135  A    between atoms: _335  and  _337
REMARK  136  A    between atoms: _337  and  _338
REMARK  137  A    between atoms: _337  and  _340
REMARK  138  A    between atoms: _340  and  _341
REMARK  139  A    between atoms: _344  and  _346
REMARK  140  A    between atoms: _346  and  _347
REMARK  141  A    between atoms: _346  and  _349
REMARK  142  A    between atoms: _349  and  _350
REMARK  143  A    between atoms: _353  and  _355
REMARK  144  A    between atoms: _355  and  _356
REMARK  145  A    between atoms: _355  and  _358
REMARK  146  A    between atoms: _358  and  _359
REMARK  147  A    between atoms: _359  and  _360
REMARK  148  A    between atoms: _365  and  _367
REMARK  149  A    between atoms: _367  and  _368
REMARK  150  A    between atoms: _371  and  _373
REMARK  151  A    between atoms: _373  and  _374
REMARK  152  A    between atoms: _373  and  _376
REMARK  153  A    between atoms: _379  and  _381
REMARK  154  A    between atoms: _381  and  _382
REMARK  155  A    between atoms: _381  and  _384
REMARK  156  A    between atoms: _384  and  _385
REMARK  157  A    between atoms: _388  and  _390
REMARK  158  A    between atoms: _390  and  _391
REMARK  159  A    between atoms: _393  and  _395
REMARK  160  A    between atoms: _395  and  _396
REMARK  161  A    between atoms: _395  and  _398
REMARK  162  A    between atoms: _398  and  _399
REMARK  163  A    between atoms: _404  and  _405
REMARK  164  A    between atoms: _407  and  _409
REMARK  165  A    between atoms: _409  and  _410
REMARK  166  A    between atoms: _409  and  _412
REMARK  167  A    between atoms: _412  and  _413
REMARK  168  A    between atoms: _413  and  _414
REMARK  169  A    between atoms: _414  and  _415
REMARK  170  A    between atoms: _424  and  _426
REMARK  171  A    between atoms: _426  and  _427
REMARK  172  A    between atoms: _426  and  _429
REMARK  173  A    between atoms: _429  and  _430
REMARK  174  A    between atoms: _436  and  _438
REMARK  175  A    between atoms: _438  and  _439
REMARK  176  A    between atoms: _438  and  _441
REMARK  177  A    between atoms: _441  and  _442
REMARK  178  A    between atoms: _445  and  _447
REMARK  179  A    between atoms: _447  and  _448
REMARK  180  A    between atoms: _447  and  _450
REMARK  181  A    between atoms: _450  and  _451
REMARK  182  A    between atoms: _454  and  _456
REMARK  183  A    between atoms: _456  and  _457
REMARK  184  A    between atoms: _456  and  _459
REMARK  185  A    between atoms: _459  and  _460
REMARK  186  A    between atoms: _470  and  _472
REMARK  187  A    between atoms: _472  and  _473
REMARK  188  A    between atoms: _472  and  _475
REMARK  189  A    between atoms: _475  and  _476
REMARK  190  A    between atoms: _479  and  _481
REMARK  191  A    between atoms: _481  and  _482
REMARK  192  A    between atoms: _481  and  _484
REMARK  193  A    between atoms: _484  and  _485
REMARK  194  A    between atoms: _485  and  _486
REMARK  195  A    between atoms: _491  and  _493
REMARK  196  A    between atoms: _493  and  _494
REMARK  197  A    between atoms: _493  and  _496
REMARK  198  A    between atoms: _496  and  _497
REMARK  199  A    between atoms: _500  and  _502
REMARK  200  A    between atoms: _502  and  _503
REMARK  201  A    between atoms: _502  and  _505
REMARK  202  A    between atoms: _505  and  _506
REMARK  203  A    between atoms: _506  and  _507
REMARK  204  A    between atoms: _512  and  _514
REMARK  205  A    between atoms: _514  and  _515
REMARK  206  A    between atoms: _518  and  _520
REMARK  207  A    between atoms: _520  and  _521
REMARK  208  A    between atoms: _520  and  _523
REMARK  209  A    between atoms: _523  and  _524
REMARK  210  A    between atoms: _527  and  _529
REMARK  211  A    between atoms: _529  and  _530
REMARK  212  A    between atoms: _529  and  _532
REMARK  213  A    between atoms: _532  and  _533
REMARK  214  A    between atoms: _536  and  _538
REMARK  215  A    between atoms: _538  and  _539
REMARK  216  A    between atoms: _538  and  _541
REMARK  217  A    between atoms: _544  and  _546
REMARK  218  A    between atoms: _546  and  _547
REMARK  219  A    between atoms: _546  and  _549
REMARK  220  A    between atoms: _551  and  _553
REMARK  221  A    between atoms: _553  and  _554
REMARK  222  A    between atoms: _553  and  _556
REMARK  223  A    between atoms: _559  and  _561
REMARK  224  A    between atoms: _561  and  _562
REMARK  225  A    between atoms: _561  and  _564
REMARK  226  A    between atoms: _564  and  _565
REMARK  227  A    between atoms: _570  and  _572
REMARK  228  A    between atoms: _572  and  _573
REMARK  229  A    between atoms: _572  and  _575
REMARK  230  A    between atoms: _575  and  _576
REMARK  231  A    between atoms: _582  and  _584
REMARK  232  A    between atoms: _584  and  _585
REMARK  233  A    between atoms: _584  and  _587
REMARK  234  A    between atoms: _587  and  _588
REMARK  235  A    between atoms: _591  and  _593
REMARK  236  A    between atoms: _593  and  _594
REMARK  237  A    between atoms: _593  and  _596
REMARK  238  A    between atoms: _596  and  _597
REMARK  239  A    between atoms: _600  and  _602
REMARK  240  A    between atoms: _602  and  _603
REMARK  241  A    between atoms: _602  and  _605
REMARK  242  A    between atoms: _605  and  _606
REMARK                            x       y       z     vdW  Elec       q    Type
REMARK                         _______ _______ _______ _____ _____    ______ ____
ROOT
ATOM      1  CA  MET A   1       9.761 -55.754 -11.349  0.00  0.00    +0.134 C 
ENDROOT
BRANCH   1   2
ATOM      2  N   MET A   1      10.975 -56.430 -10.918  0.00  0.00    -0.239 NA
ATOM      3  H   MET A   1      11.132 -56.534  -9.895  0.00  0.00    +0.142 HD
ENDBRANCH   1   2
BRANCH   1   4
ATOM      4  C   MET A   1       8.746 -56.678 -12.007  0.00  0.00    +0.224 C 
ATOM      5  O   MET A   1       7.734 -56.192 -12.509  0.00  0.00    -0.287 OA
ENDBRANCH   1   4
BRANCH   1   6
ATOM      6  CB  MET A   1      10.041 -54.518 -12.225  0.00  0.00    +0.037 C 
BRANCH   6   7
ATOM      7  CG  MET A   1      10.686 -53.393 -11.436  0.00  0.00    +0.059 C 
BRANCH   7   8
ATOM      8  SD  MET A   1       9.778 -52.873  -9.939  0.00  0.00    -0.139 S 
ATOM      9  CE  MET A   1       8.222 -52.342 -10.648  0.00  0.00    +0.069 C 
ENDBRANCH   7   8
ENDBRANCH   6   7
ENDBRANCH   1   6
TORSDOF 5
REMARK  Name = ../refined-set-2016/4wn5/4wn5_pocket.pdb
REMARK  242 active torsions:
REMARK  status: ('A' for Active; 'I' for Inactive)
REMARK    1  A    between atoms: _1  and  _5
REMARK    2  A    between atoms: _5  and  _6
REMARK    3  A    between atoms: _5  and  _8
REMARK    4  A    between atoms: _8  and  _9
REMARK    5  A    between atoms: _9  and  _10
REMARK    6  A    between atoms: _10  and  _11
REMARK    7  A    between atoms: _20  and  _22
REMARK    8  A    between atoms: _22  and  _23
REMARK    9  A    between atoms: _25  and  _27
REMARK   10  A    between atoms: _27  and  _28
REMARK   11  A    between atoms: _31  and  _33
REMARK   12  A    between atoms: _33  and  _34
REMARK   13  A    between atoms: _33  and  _36
REMARK   14  A    between atoms: _36  and  _37
REMARK   15  A    between atoms: _43  and  _45
REMARK   16  A    between atoms: _45  and  _46
REMARK   17  A    between atoms: _45  and  _48
REMARK   18  A    between atoms: _48  and  _49
REMARK   19  A    between atoms: _52  and  _54
REMARK   20  A    between atoms: _54  and  _55
REMARK   21  A    between atoms: _54  and  _57
REMARK   22  A    between atoms: _57  and  _58
REMARK   23  A    between atoms: _60  and  _62
REMARK   24  A    between atoms: _62  and  _63
REMARK   25  A    between atoms: _62  and  _65
REMARK   26  A    between atoms: _65  and  _66
REMARK   27  A    between atoms: _66  and  _67
REMARK   28  A    between atoms: _67  and  _68
REMARK   29  A    between atoms: _77  and  _79
REMARK   30  A    between atoms: _79  and  _80
REMARK   31  A    between atoms: _79  and  _82
REMARK   32  A    between atoms: _82  and  _83
REMARK   33  A    between atoms: _88  and  _90
REMARK   34  A    between atoms: _90  and  _91
REMARK   35  A    between atoms: _90  and  _93
REMARK   36  A    between atoms: _93  and  _94
REMARK   37  A    between atoms: _94  and  _95
REMARK   38  A    between atoms: _97  and  _99
REMARK   39  A    between atoms: _99  and  _100
REMARK   40  A    between atoms: _99  and  _102
REMARK   41  A    between atoms: _102  and  _103
REMARK   42  A    between atoms: _109  and  _111
REMARK   43  A    between atoms: _111  and  _112
REMARK   44  A    between atoms: _111  and  _114
REMARK   45  A    between atoms: _114  and  _115
REMARK   46  A    between atoms: _120  and  _121
REMARK   47  A    between atoms: _123  and  _125
REMARK   48  A    between atoms: _125  and  _126
REMARK   49  A    between atoms: _125  and  _128
REMARK   50  A    between atoms: _130  and  _132
REMARK   51  A    between atoms: _132  and  _133
REMARK   52  A    between atoms: _132  and  _135
REMARK   53  A    between atoms: _135  and  _136
REMARK   54  A    between atoms: _139  and  _141
REMARK   55  A    between atoms: _141  and  _142
REMARK   56  A    between atoms: _141  and  _144
REMARK   57  A    between atoms: _144  and  _145
REMARK   58  A    between atoms: _145  and  _146
REMARK   59  A    between atoms: _146  and  _147
REMARK   60  A    between atoms: _156  and  _158
REMARK   61  A    between atoms: _158  and  _159
REMARK   62  A    between atoms: _158  and  _161
REMARK   63  A    between atoms: _161  and  _162
REMARK   64  A    between atoms: _165  and  _167
REMARK   65  A    between atoms: _167  and  _168
REMARK   66  A    between atoms: _167  and  _170
REMARK   67  A    between atoms: _170  and  _171
REMARK   68  A    between atoms: _171  and  _172
REMARK   69  A    between atoms: _175  and  _177
REMARK   70  A    between atoms: _177  and  _178
REMARK   71  A    between atoms: _177  and  _180
REMARK   72  A    between atoms: _183  and  _185
REMARK   73  A    between atoms: _185  and  _186
REMARK   74  A    between atoms: _189  and  _191
REMARK   75  A    between atoms: _191  and  _192
REMARK   76  A    between atoms: _191  and  _194
REMARK   77  A    between atoms: _194  and  _195
REMARK   78  A    between atoms: _200  and  _201
REMARK   79  A    between atoms: _203  and  _205
REMARK   80  A    between atoms: _205  and  _206
REMARK   81  A    between atoms: _205  and  _208
REMARK   82  A    between atoms: _208  and  _209
REMARK   83  A    between atoms: _212  and  _214
REMARK   84  A    between atoms: _214  and  _215
REMARK   85  A    between atoms: _214  and  _217
REMARK   86  A    between atoms: _217  and  _218
REMARK   87  A    between atoms: _220  and  _222
REMARK   88  A    between atoms: _222  and  _223
REMARK   89  A    between atoms: _226  and  _228
REMARK   90  A    between atoms: _228  and  _229
REMARK   91  A    between atoms: _228  and  _231
REMARK   92  A    between atoms: _231  and  _232
REMARK   93  A    between atoms: _237  and  _238
REMARK   94  A    between atoms: _240  and  _242
REMARK   95  A    between atoms: _242  and  _243
REMARK   96  A    between atoms: _242  and  _245
REMARK   97  A    between atoms: _245  and  _246
REMARK   98  A    between atoms: _251  and  _252
REMARK   99  A    between atoms: _254  and  _256
REMARK  100  A    between atoms: _256  and  _257
REMARK  101  A    between atoms: _256  and  _259
REMARK  102  A    between atoms: _259  and  _260
REMARK  103  A    between atoms: _263  and  _265
REMARK  104  A    between atoms: _265  and  _266
REMARK  105  A    between atoms: _269  and  _271
REMARK  106  A    between atoms: _271  and  _272
REMARK  107  A    between atoms: _271  and  _274
REMARK  108  A    between atoms: _277  and  _279
REMARK  109  A    between atoms: _279  and  _280
REMARK  110  A    between atoms: _279  and  _282
REMARK  111  A    between atoms: _282  and  _283
REMARK  112  A    between atoms: _285  and  _287
REMARK  113  A    between atoms: _287  and  _288
REMARK  114  A    between atoms: _287  and  _290
REMARK  115  A    between atoms: _290  and  _291
REMARK  116  A    between atoms: _291  and  _292
REMARK  117  A    between atoms: _292  and  _293
REMARK  118  A    between atoms: _293  and  _294
REMARK  119  A    between atoms: _298  and  _300
REMARK  120  A    between atoms: _300  and  _301
REMARK  121  A    between atoms: _300  and  _303
REMARK  122  A    between atoms: _303  and  _304
REMARK  123  A    between atoms: _306  and  _308
REMARK  124  A    between atoms: _308  and  _309
REMARK  125  A    between atoms: _308  and  _311
REMARK  126  A    between atoms: _311  and  _312
REMARK  127  A    between atoms: _315  and  _317
REMARK  128  A    between atoms: _317  and  _318
REMARK  129  A    between atoms: _317  and  _320
REMARK  130  A    between atoms: _320  and  _321
REMARK  131  A    between atoms: _326  and  _328
REMARK  132  A    between atoms: _328  and  _329
REMARK  133  A    between atoms: _328  and  _331
REMARK  134  A    between atoms: _331  and  _332
REMARK  135  A    between atoms: _335  and  _337
REMARK  136  A    between atoms: _337  and  _338
REMARK  137  A    between atoms: _337  and  _340
REMARK  138  A    between atoms: _340  and  _341
REMARK  139  A    between atoms: _344  and  _346
REMARK  140  A    between atoms: _346  and  _347
REMARK  141  A    between atoms: _346  and  _349
REMARK  142  A    between atoms: _349  and  _350
REMARK  143  A    between atoms: _353  and  _355
REMARK  144  A    between atoms: _355  and  _356
REMARK  145  A    between atoms: _355  and  _358
REMARK  146  A    between atoms: _358  and  _359
REMARK  147  A    between atoms: _359  and  _360
REMARK  148  A    between atoms: _365  and  _367
REMARK  149  A    between atoms: _367  and  _368
REMARK  150  A    between atoms: _371  and  _373
REMARK  151  A    between atoms: _373  and  _374
REMARK  152  A    between atoms: _373  and  _376
REMARK  153  A    between atoms: _379  and  _381
REMARK  154  A    between atoms: _381  and  _382
REMARK  155  A    between atoms: _381  and  _384
REMARK  156  A    between atoms: _384  and  _385
REMARK  157  A    between atoms: _388  and  _390
REMARK  158  A    between atoms: _390  and  _391
REMARK  159  A    between atoms: _393  and  _395
REMARK  160  A    between atoms: _395  and  _396
REMARK  161  A    between atoms: _395  and  _398
REMARK  162  A    between atoms: _398  and  _399
REMARK  163  A    between atoms: _404  and  _405
REMARK  164  A    between atoms: _407  and  _409
REMARK  165  A    between atoms: _409  and  _410
REMARK  166  A    between atoms: _409  and  _412
REMARK  167  A    between atoms: _412  and  _413
REMARK  168  A    between atoms: _413  and  _414
REMARK  169  A    between atoms: _414  and  _415
REMARK  170  A    between atoms: _424  and  _426
REMARK  171  A    between atoms: _426  and  _427
REMARK  172  A    between atoms: _426  and  _429
REMARK  173  A    between atoms: _429  and  _430
REMARK  174  A    between atoms: _436  and  _438
REMARK  175  A    between atoms: _438  and  _439
REMARK  176  A    between atoms: _438  and  _441
REMARK  177  A    between atoms: _441  and  _442
REMARK  178  A    between atoms: _445  and  _447
REMARK  179  A    between atoms: _447  and  _448
REMARK  180  A    between atoms: _447  and  _450
REMARK  181  A    between atoms: _450  and  _451
REMARK  182  A    between atoms: _454  and  _456
REMARK  183  A    between atoms: _456  and  _457
REMARK  184  A    between atoms: _456  and  _459
REMARK  185  A    between atoms: _459  and  _460
REMARK  186  A    between atoms: _470  and  _472
REMARK  187  A    between atoms: _472  and  _473
REMARK  188  A    between atoms: _472  and  _475
REMARK  189  A    between atoms: _475  and  _476
REMARK  190  A    between atoms: _479  and  _481
REMARK  191  A    between atoms: _481  and  _482
REMARK  192  A    between atoms: _481  and  _484
REMARK  193  A    between atoms: _484  and  _485
REMARK  194  A    between atoms: _485  and  _486
REMARK  195  A    between atoms: _491  and  _493
REMARK  196  A    between atoms: _493  and  _494
REMARK  197  A    between atoms: _493  and  _496
REMARK  198  A    between atoms: _496  and  _497
REMARK  199  A    between atoms: _500  and  _502
REMARK  200  A    between atoms: _502  and  _503
REMARK  201  A    between atoms: _502  and  _505
REMARK  202  A    between atoms: _505  and  _506
REMARK  203  A    between atoms: _506  and  _507
REMARK  204  A    between atoms: _512  and  _514
REMARK  205  A    between atoms: _514  and  _515
REMARK  206  A    between atoms: _518  and  _520
REMARK  207  A    between atoms: _520  and  _521
REMARK  208  A    between atoms: _520  and  _523
REMARK  209  A    between atoms: _523  and  _524
REMARK  210  A    between atoms: _527  and  _529
REMARK  211  A    between atoms: _529  and  _530
REMARK  212  A    between atoms: _529  and  _532
REMARK  213  A    between atoms: _532  and  _533
REMARK  214  A    between atoms: _536  and  _538
REMARK  215  A    between atoms: _538  and  _539
REMARK  216  A    between atoms: _538  and  _541
REMARK  217  A    between atoms: _544  and  _546
REMARK  218  A    between atoms: _546  and  _547
REMARK  219  A    between atoms: _546  and  _549
REMARK  220  A    between atoms: _551  and  _553
REMARK  221  A    between atoms: _553  and  _554
REMARK  222  A    between atoms: _553  and  _556
REMARK  223  A    between atoms: _559  and  _561
REMARK  224  A    between atoms: _561  and  _562
REMARK  225  A    between atoms: _561  and  _564
REMARK  226  A    between atoms: _564  and  _565
REMARK  227  A    between atoms: _570  and  _572
REMARK  228  A    between atoms: _572  and  _573
REMARK  229  A    between atoms: _572  and  _575
REMARK  230  A    between atoms: _575  and  _576
REMARK  231  A    between atoms: _582  and  _584
REMARK  232  A    between atoms: _584  and  _585
REMARK  233  A    between atoms: _584  and  _587
REMARK  234  A    between atoms: _587  and  _588
REMARK  235  A    between atoms: _591  and  _593
REMARK  236  A    between atoms: _593  and  _594
REMARK  237  A    between atoms: _593  and  _596
REMARK  238  A    between atoms: _596  and  _597
REMARK  239  A    between atoms: _600  and  _602
REMARK  240  A    between atoms: _602  and  _603
REMARK  241  A    between atoms: _602  and  _605
REMARK  242  A    between atoms: _605  and  _606
REMARK                            x       y       z     vdW  Elec       q    Type
REMARK                         _______ _______ _______ _____ _____    ______ ____
ROOT
ATOM      1  CB  PHE A   1       3.038 -58.416 -12.351  0.00  0.00    +0.051 C 
ENDROOT
BRANCH   1   2
ATOM      2  CG  PHE A   1       2.850 -57.031 -12.919  0.00  0.00    -0.020 A 
ATOM      3  CD2 PHE A   1       1.996 -56.135 -12.306  0.00  0.00    -0.004 A 
ATOM      4  CE2 PHE A   1       1.772 -54.884 -12.848  0.00  0.00    -0.000 A 
ATOM      5  CZ  PHE A   1       2.408 -54.508 -14.011  0.00  0.00    -0.000 A 
ATOM      6  CE1 PHE A   1       3.250 -55.392 -14.646  0.00  0.00    -0.000 A 
ATOM      7  CD1 PHE A   1       3.461 -56.652 -14.100  0.00  0.00    -0.004 A 
ENDBRANCH   1   2
BRANCH   1   8
ATOM      8  CA  PHE A   1       4.242 -58.594 -11.422  0.00  0.00    +0.137 C 
BRANCH   8   9
ATOM      9  N   PHE A   1       5.479 -58.628 -12.159  0.00  0.00    -0.239 NA
ATOM     10  H   PHE A   1       5.458 -58.571 -13.197  0.00  0.00    +0.142 HD
ENDBRANCH   8   9
BRANCH   8  11
ATOM     11  C   PHE A   1       4.007 -59.898 -10.687  0.00  0.00    +0.224 C 
ATOM     12  O   PHE A   1       4.080 -60.976 -11.278  0.00  0.00    -0.287 OA
ENDBRANCH   8  11
ENDBRANCH   1   8
TORSDOF 4
REMARK  Name = ../refined-set-2016/4wn5/4wn5_pocket.pdb
REMARK  242 active torsions:
REMARK  status: ('A' for Active; 'I' for Inactive)
REMARK    1  A    between atoms: _1  and  _5
REMARK    2  A    between atoms: _5  and  _6
REMARK    3  A    between atoms: _5  and  _8
REMARK    4  A    between atoms: _8  and  _9
REMARK    5  A    between atoms: _9  and  _10
REMARK    6  A    between atoms: _10  and  _11
REMARK    7  A    between atoms: _20  and  _22
REMARK    8  A    between atoms: _22  and  _23
REMARK    9  A    between atoms: _25  and  _27
REMARK   10  A    between atoms: _27  and  _28
REMARK   11  A    between atoms: _31  and  _33
REMARK   12  A    between atoms: _33  and  _34
REMARK   13  A    between atoms: _33  and  _36
REMARK   14  A    between atoms: _36  and  _37
REMARK   15  A    between atoms: _43  and  _45
REMARK   16  A    between atoms: _45  and  _46
REMARK   17  A    between atoms: _45  and  _48
REMARK   18  A    between atoms: _48  and  _49
REMARK   19  A    between atoms: _52  and  _54
REMARK   20  A    between atoms: _54  and  _55
REMARK   21  A    between atoms: _54  and  _57
REMARK   22  A    between atoms: _57  and  _58
REMARK   23  A    between atoms: _60  and  _62
REMARK   24  A    between atoms: _62  and  _63
REMARK   25  A    between atoms: _62  and  _65
REMARK   26  A    between atoms: _65  and  _66
REMARK   27  A    between atoms: _66  and  _67
REMARK   28  A    between atoms: _67  and  _68
REMARK   29  A    between atoms: _77  and  _79
REMARK   30  A    between atoms: _79  and  _80
REMARK   31  A    between atoms: _79  and  _82
REMARK   32  A    between atoms: _82  and  _83
REMARK   33  A    between atoms: _88  and  _90
REMARK   34  A    between atoms: _90  and  _91
REMARK   35  A    between atoms: _90  and  _93
REMARK   36  A    between atoms: _93  and  _94
REMARK   37  A    between atoms: _94  and  _95
REMARK   38  A    between atoms: _97  and  _99
REMARK   39  A    between atoms: _99  and  _100
REMARK   40  A    between atoms: _99  and  _102
REMARK   41  A    between atoms: _102  and  _103
REMARK   42  A    between atoms: _109  and  _111
REMARK   43  A    between atoms: _111  and  _112
REMARK   44  A    between atoms: _111  and  _114
REMARK   45  A    between atoms: _114  and  _115
REMARK   46  A    between atoms: _120  and  _121
REMARK   47  A    between atoms: _123  and  _125
REMARK   48  A    between atoms: _125  and  _126
REMARK   49  A    between atoms: _125  and  _128
REMARK   50  A    between atoms: _130  and  _132
REMARK   51  A    between atoms: _132  and  _133
REMARK   52  A    between atoms: _132  and  _135
REMARK   53  A    between atoms: _135  and  _136
REMARK   54  A    between atoms: _139  and  _141
REMARK   55  A    between atoms: _141  and  _142
REMARK   56  A    between atoms: _141  and  _144
REMARK   57  A    between atoms: _144  and  _145
REMARK   58  A    between atoms: _145  and  _146
REMARK   59  A    between atoms: _146  and  _147
REMARK   60  A    between atoms: _156  and  _158
REMARK   61  A    between atoms: _158  and  _159
REMARK   62  A    between atoms: _158  and  _161
REMARK   63  A    between atoms: _161  and  _162
REMARK   64  A    between atoms: _165  and  _167
REMARK   65  A    between atoms: _167  and  _168
REMARK   66  A    between atoms: _167  and  _170
REMARK   67  A    between atoms: _170  and  _171
REMARK   68  A    between atoms: _171  and  _172
REMARK   69  A    between atoms: _175  and  _177
REMARK   70  A    between atoms: _177  and  _178
REMARK   71  A    between atoms: _177  and  _180
REMARK   72  A    between atoms: _183  and  _185
REMARK   73  A    between atoms: _185  and  _186
REMARK   74  A    between atoms: _189  and  _191
REMARK   75  A    between atoms: _191  and  _192
REMARK   76  A    between atoms: _191  and  _194
REMARK   77  A    between atoms: _194  and  _195
REMARK   78  A    between atoms: _200  and  _201
REMARK   79  A    between atoms: _203  and  _205
REMARK   80  A    between atoms: _205  and  _206
REMARK   81  A    between atoms: _205  and  _208
REMARK   82  A    between atoms: _208  and  _209
REMARK   83  A    between atoms: _212  and  _214
REMARK   84  A    between atoms: _214  and  _215
REMARK   85  A    between atoms: _214  and  _217
REMARK   86  A    between atoms: _217  and  _218
REMARK   87  A    between atoms: _220  and  _222
REMARK   88  A    between atoms: _222  and  _223
REMARK   89  A    between atoms: _226  and  _228
REMARK   90  A    between atoms: _228  and  _229
REMARK   91  A    between atoms: _228  and  _231
REMARK   92  A    between atoms: _231  and  _232
REMARK   93  A    between atoms: _237  and  _238
REMARK   94  A    between atoms: _240  and  _242
REMARK   95  A    between atoms: _242  and  _243
REMARK   96  A    between atoms: _242  and  _245
REMARK   97  A    between atoms: _245  and  _246
REMARK   98  A    between atoms: _251  and  _252
REMARK   99  A    between atoms: _254  and  _256
REMARK  100  A    between atoms: _256  and  _257
REMARK  101  A    between atoms: _256  and  _259
REMARK  102  A    between atoms: _259  and  _260
REMARK  103  A    between atoms: _263  and  _265
REMARK  104  A    between atoms: _265  and  _266
REMARK  105  A    between atoms: _269  and  _271
REMARK  106  A    between atoms: _271  and  _272
REMARK  107  A    between atoms: _271  and  _274
REMARK  108  A    between atoms: _277  and  _279
REMARK  109  A    between atoms: _279  and  _280
REMARK  110  A    between atoms: _279  and  _282
REMARK  111  A    between atoms: _282  and  _283
REMARK  112  A    between atoms: _285  and  _287
REMARK  113  A    between atoms: _287  and  _288
REMARK  114  A    between atoms: _287  and  _290
REMARK  115  A    between atoms: _290  and  _291
REMARK  116  A    between atoms: _291  and  _292
REMARK  117  A    between atoms: _292  and  _293
REMARK  118  A    between atoms: _293  and  _294
REMARK  119  A    between atoms: _298  and  _300
REMARK  120  A    between atoms: _300  and  _301
REMARK  121  A    between atoms: _300  and  _303
REMARK  122  A    between atoms: _303  and  _304
REMARK  123  A    between atoms: _306  and  _308
REMARK  124  A    between atoms: _308  and  _309
REMARK  125  A    between atoms: _308  and  _311
REMARK  126  A    between atoms: _311  and  _312
REMARK  127  A    between atoms: _315  and  _317
REMARK  128  A    between atoms: _317  and  _318
REMARK  129  A    between atoms: _317  and  _320
REMARK  130  A    between atoms: _320  and  _321
REMARK  131  A    between atoms: _326  and  _328
REMARK  132  A    between atoms: _328  and  _329
REMARK  133  A    between atoms: _328  and  _331
REMARK  134  A    between atoms: _331  and  _332
REMARK  135  A    between atoms: _335  and  _337
REMARK  136  A    between atoms: _337  and  _338
REMARK  137  A    between atoms: _337  and  _340
REMARK  138  A    between atoms: _340  and  _341
REMARK  139  A    between atoms: _344  and  _346
REMARK  140  A    between atoms: _346  and  _347
REMARK  141  A    between atoms: _346  and  _349
REMARK  142  A    between atoms: _349  and  _350
REMARK  143  A    between atoms: _353  and  _355
REMARK  144  A    between atoms: _355  and  _356
REMARK  145  A    between atoms: _355  and  _358
REMARK  146  A    between atoms: _358  and  _359
REMARK  147  A    between atoms: _359  and  _360
REMARK  148  A    between atoms: _365  and  _367
REMARK  149  A    between atoms: _367  and  _368
REMARK  150  A    between atoms: _371  and  _373
REMARK  151  A    between atoms: _373  and  _374
REMARK  152  A    between atoms: _373  and  _376
REMARK  153  A    between atoms: _379  and  _381
REMARK  154  A    between atoms: _381  and  _382
REMARK  155  A    between atoms: _381  and  _384
REMARK  156  A    between atoms: _384  and  _385
REMARK  157  A    between atoms: _388  and  _390
REMARK  158  A    between atoms: _390  and  _391
REMARK  159  A    between atoms: _393  and  _395
REMARK  160  A    between atoms: _395  and  _396
REMARK  161  A    between atoms: _395  and  _398
REMARK  162  A    between atoms: _398  and  _399
REMARK  163  A    between atoms: _404  and  _405
REMARK  164  A    between atoms: _407  and  _409
REMARK  165  A    between atoms: _409  and  _410
REMARK  166  A    between atoms: _409  and  _412
REMARK  167  A    between atoms: _412  and  _413
REMARK  168  A    between atoms: _413  and  _414
REMARK  169  A    between atoms: _414  and  _415
REMARK  170  A    between atoms: _424  and  _426
REMARK  171  A    between atoms: _426  and  _427
REMARK  172  A    between atoms: _426  and  _429
REMARK  173  A    between atoms: _429  and  _430
REMARK  174  A    between atoms: _436  and  _438
REMARK  175  A    between atoms: _438  and  _439
REMARK  176  A    between atoms: _438  and  _441
REMARK  177  A    between atoms: _441  and  _442
REMARK  178  A    between atoms: _445  and  _447
REMARK  179  A    between atoms: _447  and  _448
REMARK  180  A    between atoms: _447  and  _450
REMARK  181  A    between atoms: _450  and  _451
REMARK  182  A    between atoms: _454  and  _456
REMARK  183  A    between atoms: _456  and  _457
REMARK  184  A    between atoms: _456  and  _459
REMARK  185  A    between atoms: _459  and  _460
REMARK  186  A    between atoms: _470  and  _472
REMARK  187  A    between atoms: _472  and  _473
REMARK  188  A    between atoms: _472  and  _475
REMARK  189  A    between atoms: _475  and  _476
REMARK  190  A    between atoms: _479  and  _481
REMARK  191  A    between atoms: _481  and  _482
REMARK  192  A    between atoms: _481  and  _484
REMARK  193  A    between atoms: _484  and  _485
REMARK  194  A    between atoms: _485  and  _486
REMARK  195  A    between atoms: _491  and  _493
REMARK  196  A    between atoms: _493  and  _494
REMARK  197  A    between atoms: _493  and  _496
REMARK  198  A    between atoms: _496  and  _497
REMARK  199  A    between atoms: _500  and  _502
REMARK  200  A    between atoms: _502  and  _503
REMARK  201  A    between atoms: _502  and  _505
REMARK  202  A    between atoms: _505  and  _506
REMARK  203  A    between atoms: _506  and  _507
REMARK  204  A    between atoms: _512  and  _514
REMARK  205  A    between atoms: _514  and  _515
REMARK  206  A    between atoms: _518  and  _520
REMARK  207  A    between atoms: _520  and  _521
REMARK  208  A    between atoms: _520  and  _523
REMARK  209  A    between atoms: _523  and  _524
REMARK  210  A    between atoms: _527  and  _529
REMARK  211  A    between atoms: _529  and  _530
REMARK  212  A    between atoms: _529  and  _532
REMARK  213  A    between atoms: _532  and  _533
REMARK  214  A    between atoms: _536  and  _538
REMARK  215  A    between atoms: _538  and  _539
REMARK  216  A    between atoms: _538  and  _541
REMARK  217  A    between atoms: _544  and  _546
REMARK  218  A    between atoms: _546  and  _547
REMARK  219  A    between atoms: _546  and  _549
REMARK  220  A    between atoms: _551  and  _553
REMARK  221  A    between atoms: _553  and  _554
REMARK  222  A    between atoms: _553  and  _556
REMARK  223  A    between atoms: _559  and  _561
REMARK  224  A    between atoms: _561  and  _562
REMARK  225  A    between atoms: _561  and  _564
REMARK  226  A    between atoms: _564  and  _565
REMARK  227  A    between atoms: _570  and  _572
REMARK  228  A    between atoms: _572  and  _573
REMARK  229  A    between atoms: _572  and  _575
REMARK  230  A    between atoms: _575  and  _576
REMARK  231  A    between atoms: _582  and  _584
REMARK  232  A    between atoms: _584  and  _585
REMARK  233  A    between atoms: _584  and  _587
REMARK  234  A    between atoms: _587  and  _588
REMARK  235  A    between atoms: _591  and  _593
REMARK  236  A    between atoms: _593  and  _594
REMARK  237  A    between atoms: _593  and  _596
REMARK  238  A    between atoms: _596  and  _597
REMARK  239  A    between atoms: _600  and  _602
REMARK  240  A    between atoms: _602  and  _603
REMARK  241  A    between atoms: _602  and  _605
REMARK  242  A    between atoms: _605  and  _606
REMARK                            x       y       z     vdW  Elec       q    Type
REMARK                         _______ _______ _______ _____ _____    ______ ____
ROOT
ATOM      1  C   TYR A   1      -0.529 -57.939  -8.997  0.00  0.00    +0.239 C 
ATOM      2  O   TYR A   1       0.301 -57.015  -9.051  0.00  0.00    -0.274 OA
ATOM      3  N   CYS A   2      -1.715 -57.894  -9.602  0.00  0.00    -0.296 N 
ATOM      4  H   CYS A   2      -2.306 -58.749  -9.632  0.00  0.00    +0.150 HD
ENDROOT
BRANCH   1   5
ATOM      5  CA  TYR A   1      -0.249 -59.182  -8.202  0.00  0.00    +0.149 C 
BRANCH   5   6
ATOM      6  N   TYR A   1       1.147 -59.495  -8.389  0.00  0.00    -0.238 NA
ATOM      7  H   TYR A   1       1.798 -58.713  -8.605  0.00  0.00    +0.142 HD
ENDBRANCH   5   6
BRANCH   5   8
ATOM      8  CB  TYR A   1      -0.579 -58.907  -6.714  0.00  0.00    +0.053 C 
BRANCH   8   9
ATOM      9  CG  TYR A   1      -1.902 -58.217  -6.488  0.00  0.00    -0.020 A 
ATOM     10  CD2 TYR A   1      -1.955 -56.855  -6.309  0.00  0.00    -0.001 A 
ATOM     11  CE2 TYR A   1      -3.134 -56.196  -6.136  0.00  0.00    +0.036 A 
ATOM     12  CZ  TYR A   1      -4.326 -56.898  -6.154  0.00  0.00    +0.134 A 
ATOM     13  CE1 TYR A   1      -4.309 -58.271  -6.325  0.00  0.00    +0.036 A 
ATOM     14  CD1 TYR A   1      -3.109 -58.918  -6.510  0.00  0.00    -0.001 A 
BRANCH  12  15
ATOM     15  OH  TYR A   1      -5.533 -56.259  -5.994  0.00  0.00    -0.506 OA
ATOM     16  HH  TYR A   1      -6.265 -56.924  -6.036  0.00  0.00    +0.292 HD
ENDBRANCH  12  15
ENDBRANCH   8   9
ENDBRANCH   5   8
ENDBRANCH   1   5
BRANCH   3  17
ATOM     17  CA  CYS A   2      -2.197 -56.672 -10.221  0.00  0.00    +0.160 C 
BRANCH  17  18
ATOM     18  C   CYS A   2      -3.678 -56.503  -9.936  0.00  0.00    +0.242 C 
ATOM     19  N   ASP A   3      -4.073 -55.290  -9.614  0.00  0.00    -0.298 N 
ATOM     20  H   ASP A   3      -3.358 -54.543  -9.506  0.00  0.00    +0.150 HD
ATOM     21  O   CYS A   2      -4.456 -57.439 -10.066  0.00  0.00    -0.273 OA
BRANCH  19  22
ATOM     22  CA  ASP A   3      -5.468 -54.957  -9.404  0.00  0.00    +0.148 C 
BRANCH  22  23
ATOM     23  C   ASP A   3      -6.308 -55.431 -10.575  0.00  0.00    +0.227 C 
ATOM     24  O   ASP A   3      -5.946 -55.217 -11.733  0.00  0.00    -0.286 OA
ENDBRANCH  22  23
BRANCH  22  25
ATOM     25  CB  ASP A   3      -5.570 -53.436  -9.305  0.00  0.00    +0.142 C 
BRANCH  25  26
ATOM     26  CG  ASP A   3      -6.862 -52.976  -8.720  0.00  0.00    +0.367 C 
ATOM     27  OD2 ASP A   3      -6.820 -52.461  -7.583  0.00  0.00    -0.246 OA
ATOM     28  OD1 ASP A   3      -7.899 -53.096  -9.396  0.00  0.00    -0.246 OA
ENDBRANCH  25  26
ENDBRANCH  22  25
ENDBRANCH  19  22
ENDBRANCH  17  18
BRANCH  17  29
ATOM     29  CB  CYS A   2      -1.956 -56.692 -11.725  0.00  0.00    +0.098 C 
ATOM     30  SG  CYS A   2      -2.316 -55.087 -12.513  0.00  0.00    -0.080 S 
ENDBRANCH  17  29
ENDBRANCH   3  17
TORSDOF 12
REMARK  Name = ../refined-set-2016/4wn5/4wn5_pocket.pdb
REMARK  242 active torsions:
REMARK  status: ('A' for Active; 'I' for Inactive)
REMARK    1  A    between atoms: _1  and  _5
REMARK    2  A    between atoms: _5  and  _6
REMARK    3  A    between atoms: _5  and  _8
REMARK    4  A    between atoms: _8  and  _9
REMARK    5  A    between atoms: _9  and  _10
REMARK    6  A    between atoms: _10  and  _11
REMARK    7  A    between atoms: _20  and  _22
REMARK    8  A    between atoms: _22  and  _23
REMARK    9  A    between atoms: _25  and  _27
REMARK   10  A    between atoms: _27  and  _28
REMARK   11  A    between atoms: _31  and  _33
REMARK   12  A    between atoms: _33  and  _34
REMARK   13  A    between atoms: _33  and  _36
REMARK   14  A    between atoms: _36  and  _37
REMARK   15  A    between atoms: _43  and  _45
REMARK   16  A    between atoms: _45  and  _46
REMARK   17  A    between atoms: _45  and  _48
REMARK   18  A    between atoms: _48  and  _49
REMARK   19  A    between atoms: _52  and  _54
REMARK   20  A    between atoms: _54  and  _55
REMARK   21  A    between atoms: _54  and  _57
REMARK   22  A    between atoms: _57  and  _58
REMARK   23  A    between atoms: _60  and  _62
REMARK   24  A    between atoms: _62  and  _63
REMARK   25  A    between atoms: _62  and  _65
REMARK   26  A    between atoms: _65  and  _66
REMARK   27  A    between atoms: _66  and  _67
REMARK   28  A    between atoms: _67  and  _68
REMARK   29  A    between atoms: _77  and  _79
REMARK   30  A    between atoms: _79  and  _80
REMARK   31  A    between atoms: _79  and  _82
REMARK   32  A    between atoms: _82  and  _83
REMARK   33  A    between atoms: _88  and  _90
REMARK   34  A    between atoms: _90  and  _91
REMARK   35  A    between atoms: _90  and  _93
REMARK   36  A    between atoms: _93  and  _94
REMARK   37  A    between atoms: _94  and  _95
REMARK   38  A    between atoms: _97  and  _99
REMARK   39  A    between atoms: _99  and  _100
REMARK   40  A    between atoms: _99  and  _102
REMARK   41  A    between atoms: _102  and  _103
REMARK   42  A    between atoms: _109  and  _111
REMARK   43  A    between atoms: _111  and  _112
REMARK   44  A    between atoms: _111  and  _114
REMARK   45  A    between atoms: _114  and  _115
REMARK   46  A    between atoms: _120  and  _121
REMARK   47  A    between atoms: _123  and  _125
REMARK   48  A    between atoms: _125  and  _126
REMARK   49  A    between atoms: _125  and  _128
REMARK   50  A    between atoms: _130  and  _132
REMARK   51  A    between atoms: _132  and  _133
REMARK   52  A    between atoms: _132  and  _135
REMARK   53  A    between atoms: _135  and  _136
REMARK   54  A    between atoms: _139  and  _141
REMARK   55  A    between atoms: _141  and  _142
REMARK   56  A    between atoms: _141  and  _144
REMARK   57  A    between atoms: _144  and  _145
REMARK   58  A    between atoms: _145  and  _146
REMARK   59  A    between atoms: _146  and  _147
REMARK   60  A    between atoms: _156  and  _158
REMARK   61  A    between atoms: _158  and  _159
REMARK   62  A    between atoms: _158  and  _161
REMARK   63  A    between atoms: _161  and  _162
REMARK   64  A    between atoms: _165  and  _167
REMARK   65  A    between atoms: _167  and  _168
REMARK   66  A    between atoms: _167  and  _170
REMARK   67  A    between atoms: _170  and  _171
REMARK   68  A    between atoms: _171  and  _172
REMARK   69  A    between atoms: _175  and  _177
REMARK   70  A    between atoms: _177  and  _178
REMARK   71  A    between atoms: _177  and  _180
REMARK   72  A    between atoms: _183  and  _185
REMARK   73  A    between atoms: _185  and  _186
REMARK   74  A    between atoms: _189  and  _191
REMARK   75  A    between atoms: _191  and  _192
REMARK   76  A    between atoms: _191  and  _194
REMARK   77  A    between atoms: _194  and  _195
REMARK   78  A    between atoms: _200  and  _201
REMARK   79  A    between atoms: _203  and  _205
REMARK   80  A    between atoms: _205  and  _206
REMARK   81  A    between atoms: _205  and  _208
REMARK   82  A    between atoms: _208  and  _209
REMARK   83  A    between atoms: _212  and  _214
REMARK   84  A    between atoms: _214  and  _215
REMARK   85  A    between atoms: _214  and  _217
REMARK   86  A    between atoms: _217  and  _218
REMARK   87  A    between atoms: _220  and  _222
REMARK   88  A    between atoms: _222  and  _223
REMARK   89  A    between atoms: _226  and  _228
REMARK   90  A    between atoms: _228  and  _229
REMARK   91  A    between atoms: _228  and  _231
REMARK   92  A    between atoms: _231  and  _232
REMARK   93  A    between atoms: _237  and  _238
REMARK   94  A    between atoms: _240  and  _242
REMARK   95  A    between atoms: _242  and  _243
REMARK   96  A    between atoms: _242  and  _245
REMARK   97  A    between atoms: _245  and  _246
REMARK   98  A    between atoms: _251  and  _252
REMARK   99  A    between atoms: _254  and  _256
REMARK  100  A    between atoms: _256  and  _257
REMARK  101  A    between atoms: _256  and  _259
REMARK  102  A    between atoms: _259  and  _260
REMARK  103  A    between atoms: _263  and  _265
REMARK  104  A    between atoms: _265  and  _266
REMARK  105  A    between atoms: _269  and  _271
REMARK  106  A    between atoms: _271  and  _272
REMARK  107  A    between atoms: _271  and  _274
REMARK  108  A    between atoms: _277  and  _279
REMARK  109  A    between atoms: _279  and  _280
REMARK  110  A    between atoms: _279  and  _282
REMARK  111  A    between atoms: _282  and  _283
REMARK  112  A    between atoms: _285  and  _287
REMARK  113  A    between atoms: _287  and  _288
REMARK  114  A    between atoms: _287  and  _290
REMARK  115  A    between atoms: _290  and  _291
REMARK  116  A    between atoms: _291  and  _292
REMARK  117  A    between atoms: _292  and  _293
REMARK  118  A    between atoms: _293  and  _294
REMARK  119  A    between atoms: _298  and  _300
REMARK  120  A    between atoms: _300  and  _301
REMARK  121  A    between atoms: _300  and  _303
REMARK  122  A    between atoms: _303  and  _304
REMARK  123  A    between atoms: _306  and  _308
REMARK  124  A    between atoms: _308  and  _309
REMARK  125  A    between atoms: _308  and  _311
REMARK  126  A    between atoms: _311  and  _312
REMARK  127  A    between atoms: _315  and  _317
REMARK  128  A    between atoms: _317  and  _318
REMARK  129  A    between atoms: _317  and  _320
REMARK  130  A    between atoms: _320  and  _321
REMARK  131  A    between atoms: _326  and  _328
REMARK  132  A    between atoms: _328  and  _329
REMARK  133  A    between atoms: _328  and  _331
REMARK  134  A    between atoms: _331  and  _332
REMARK  135  A    between atoms: _335  and  _337
REMARK  136  A    between atoms: _337  and  _338
REMARK  137  A    between atoms: _337  and  _340
REMARK  138  A    between atoms: _340  and  _341
REMARK  139  A    between atoms: _344  and  _346
REMARK  140  A    between atoms: _346  and  _347
REMARK  141  A    between atoms: _346  and  _349
REMARK  142  A    between atoms: _349  and  _350
REMARK  143  A    between atoms: _353  and  _355
REMARK  144  A    between atoms: _355  and  _356
REMARK  145  A    between atoms: _355  and  _358
REMARK  146  A    between atoms: _358  and  _359
REMARK  147  A    between atoms: _359  and  _360
REMARK  148  A    between atoms: _365  and  _367
REMARK  149  A    between atoms: _367  and  _368
REMARK  150  A    between atoms: _371  and  _373
REMARK  151  A    between atoms: _373  and  _374
REMARK  152  A    between atoms: _373  and  _376
REMARK  153  A    between atoms: _379  and  _381
REMARK  154  A    between atoms: _381  and  _382
REMARK  155  A    between atoms: _381  and  _384
REMARK  156  A    between atoms: _384  and  _385
REMARK  157  A    between atoms: _388  and  _390
REMARK  158  A    between atoms: _390  and  _391
REMARK  159  A    between atoms: _393  and  _395
REMARK  160  A    between atoms: _395  and  _396
REMARK  161  A    between atoms: _395  and  _398
REMARK  162  A    between atoms: _398  and  _399
REMARK  163  A    between atoms: _404  and  _405
REMARK  164  A    between atoms: _407  and  _409
REMARK  165  A    between atoms: _409  and  _410
REMARK  166  A    between atoms: _409  and  _412
REMARK  167  A    between atoms: _412  and  _413
REMARK  168  A    between atoms: _413  and  _414
REMARK  169  A    between atoms: _414  and  _415
REMARK  170  A    between atoms: _424  and  _426
REMARK  171  A    between atoms: _426  and  _427
REMARK  172  A    between atoms: _426  and  _429
REMARK  173  A    between atoms: _429  and  _430
REMARK  174  A    between atoms: _436  and  _438
REMARK  175  A    between atoms: _438  and  _439
REMARK  176  A    between atoms: _438  and  _441
REMARK  177  A    between atoms: _441  and  _442
REMARK  178  A    between atoms: _445  and  _447
REMARK  179  A    between atoms: _447  and  _448
REMARK  180  A    between atoms: _447  and  _450
REMARK  181  A    between atoms: _450  and  _451
REMARK  182  A    between atoms: _454  and  _456
REMARK  183  A    between atoms: _456  and  _457
REMARK  184  A    between atoms: _456  and  _459
REMARK  185  A    between atoms: _459  and  _460
REMARK  186  A    between atoms: _470  and  _472
REMARK  187  A    between atoms: _472  and  _473
REMARK  188  A    between atoms: _472  and  _475
REMARK  189  A    between atoms: _475  and  _476
REMARK  190  A    between atoms: _479  and  _481
REMARK  191  A    between atoms: _481  and  _482
REMARK  192  A    between atoms: _481  and  _484
REMARK  193  A    between atoms: _484  and  _485
REMARK  194  A    between atoms: _485  and  _486
REMARK  195  A    between atoms: _491  and  _493
REMARK  196  A    between atoms: _493  and  _494
REMARK  197  A    between atoms: _493  and  _496
REMARK  198  A    between atoms: _496  and  _497
REMARK  199  A    between atoms: _500  and  _502
REMARK  200  A    between atoms: _502  and  _503
REMARK  201  A    between atoms: _502  and  _505
REMARK  202  A    between atoms: _505  and  _506
REMARK  203  A    between atoms: _506  and  _507
REMARK  204  A    between atoms: _512  and  _514
REMARK  205  A    between atoms: _514  and  _515
REMARK  206  A    between atoms: _518  and  _520
REMARK  207  A    between atoms: _520  and  _521
REMARK  208  A    between atoms: _520  and  _523
REMARK  209  A    between atoms: _523  and  _524
REMARK  210  A    between atoms: _527  and  _529
REMARK  211  A    between atoms: _529  and  _530
REMARK  212  A    between atoms: _529  and  _532
REMARK  213  A    between atoms: _532  and  _533
REMARK  214  A    between atoms: _536  and  _538
REMARK  215  A    between atoms: _538  and  _539
REMARK  216  A    between atoms: _538  and  _541
REMARK  217  A    between atoms: _544  and  _546
REMARK  218  A    between atoms: _546  and  _547
REMARK  219  A    between atoms: _546  and  _549
REMARK  220  A    between atoms: _551  and  _553
REMARK  221  A    between atoms: _553  and  _554
REMARK  222  A    between atoms: _553  and  _556
REMARK  223  A    between atoms: _559  and  _561
REMARK  224  A    between atoms: _561  and  _562
REMARK  225  A    between atoms: _561  and  _564
REMARK  226  A    between atoms: _564  and  _565
REMARK  227  A    between atoms: _570  and  _572
REMARK  228  A    between atoms: _572  and  _573
REMARK  229  A    between atoms: _572  and  _575
REMARK  230  A    between atoms: _575  and  _576
REMARK  231  A    between atoms: _582  and  _584
REMARK  232  A    between atoms: _584  and  _585
REMARK  233  A    between atoms: _584  and  _587
REMARK  234  A    between atoms: _587  and  _588
REMARK  235  A    between atoms: _591  and  _593
REMARK  236  A    between atoms: _593  and  _594
REMARK  237  A    between atoms: _593  and  _596
REMARK  238  A    between atoms: _596  and  _597
REMARK  239  A    between atoms: _600  and  _602
REMARK  240  A    between atoms: _602  and  _603
REMARK  241  A    between atoms: _602  and  _605
REMARK  242  A    between atoms: _605  and  _606
REMARK                            x       y       z     vdW  Elec       q    Type
REMARK                         _______ _______ _______ _____ _____    ______ ____
ROOT
ATOM      1  CA  ARG A   1      -9.349 -53.181 -12.679  0.00  0.00    +0.145 C 
ENDROOT
BRANCH   1   2
ATOM      2  C   ARG A   1      -8.403 -52.876 -13.839  0.00  0.00    +0.238 C 
ATOM      3  N   ILE A   2      -7.278 -53.580 -13.935  0.00  0.00    -0.298 N 
ATOM      4  H   ILE A   2      -7.022 -54.240 -13.173  0.00  0.00    +0.150 HD
ATOM      5  O   ARG A   1      -8.700 -52.021 -14.662  0.00  0.00    -0.274 OA
BRANCH   3   6
ATOM      6  CA  ILE A   2      -6.396 -53.444 -15.090  0.00  0.00    +0.137 C 
BRANCH   6   7
ATOM      7  CB  ILE A   2      -5.126 -54.335 -14.939  0.00  0.00    +0.026 C 
ATOM      8  CG2 ILE A   2      -5.473 -55.813 -14.936  0.00  0.00    +0.002 C 
BRANCH   7   9
ATOM      9  CG1 ILE A   2      -4.047 -53.994 -15.963  0.00  0.00    +0.002 C 
ATOM     10  CD1 ILE A   2      -3.406 -52.626 -15.774  0.00  0.00    +0.000 C 
ENDBRANCH   7   9
ENDBRANCH   6   7
BRANCH   6  11
ATOM     11  C   ILE A   2      -7.156 -53.695 -16.395  0.00  0.00    +0.227 C 
ATOM     12  O   ILE A   2      -6.814 -53.142 -17.418  0.00  0.00    -0.286 OA
ENDBRANCH   6  11
ENDBRANCH   3   6
ENDBRANCH   1   2
BRANCH   1  13
ATOM     13  N   ARG A   1      -8.848 -54.254 -11.840  0.00  0.00    -0.238 NA
ATOM     14  H   ARG A   1      -8.548 -54.058 -10.864  0.00  0.00    +0.142 HD
ENDBRANCH   1  13
BRANCH   1  15
ATOM     15  CB  ARG A   1      -9.634 -51.920 -11.873  0.00  0.00    +0.030 C 
BRANCH  15  16
ATOM     16  CG  ARG A   1     -10.834 -52.064 -10.944  0.00  0.00    +0.045 C 
BRANCH  16  17
ATOM     17  CD  ARG A   1     -10.918 -50.914  -9.965  0.00  0.00    +0.174 C 
BRANCH  17  18
ATOM     18  NE  ARG A   1      -9.832 -51.005  -9.007  0.00  0.00    -0.265 N 
ATOM     19  CZ  ARG A   1      -9.650 -50.161  -8.001  0.00  0.00    +0.342 C 
ATOM     20  NH2 ARG A   1      -8.639 -50.363  -7.183  0.00  0.00    -0.292 N 
ATOM     21 HH21 ARG A   1      -8.477 -49.714  -6.387  0.00  0.00    +0.255 HD
ATOM     22 HH22 ARG A   1      -8.002 -51.172  -7.333  0.00  0.00    +0.255 HD
ATOM     23  NH1 ARG A   1     -10.450 -49.113  -7.818  0.00  0.00    -0.292 N 
ATOM     24 HH11 ARG A   1     -10.285 -48.466  -7.021  0.00  0.00    +0.255 HD
ATOM     25 HH12 ARG A   1     -11.240 -48.941  -8.472  0.00  0.00    +0.255 HD
ATOM     26  HE  ARG A   1      -9.151 -51.784  -9.117  0.00  0.00    +0.259 HD
ENDBRANCH  17  18
ENDBRANCH  16  17
ENDBRANCH  15  16
ENDBRANCH   1  15
TORSDOF 10
REMARK  Name = ../refined-set-2016/4wn5/4wn5_pocket.pdb
REMARK  242 active torsions:
REMARK  status: ('A' for Active; 'I' for Inactive)
REMARK    1  A    between atoms: _1  and  _5
REMARK    2  A    between atoms: _5  and  _6
REMARK    3  A    between atoms: _5  and  _8
REMARK    4  A    between atoms: _8  and  _9
REMARK    5  A    between atoms: _9  and  _10
REMARK    6  A    between atoms: _10  and  _11
REMARK    7  A    between atoms: _20  and  _22
REMARK    8  A    between atoms: _22  and  _23
REMARK    9  A    between atoms: _25  and  _27
REMARK   10  A    between atoms: _27  and  _28
REMARK   11  A    between atoms: _31  and  _33
REMARK   12  A    between atoms: _33  and  _34
REMARK   13  A    between atoms: _33  and  _36
REMARK   14  A    between atoms: _36  and  _37
REMARK   15  A    between atoms: _43  and  _45
REMARK   16  A    between atoms: _45  and  _46
REMARK   17  A    between atoms: _45  and  _48
REMARK   18  A    between atoms: _48  and  _49
REMARK   19  A    between atoms: _52  and  _54
REMARK   20  A    between atoms: _54  and  _55
REMARK   21  A    between atoms: _54  and  _57
REMARK   22  A    between atoms: _57  and  _58
REMARK   23  A    between atoms: _60  and  _62
REMARK   24  A    between atoms: _62  and  _63
REMARK   25  A    between atoms: _62  and  _65
REMARK   26  A    between atoms: _65  and  _66
REMARK   27  A    between atoms: _66  and  _67
REMARK   28  A    between atoms: _67  and  _68
REMARK   29  A    between atoms: _77  and  _79
REMARK   30  A    between atoms: _79  and  _80
REMARK   31  A    between atoms: _79  and  _82
REMARK   32  A    between atoms: _82  and  _83
REMARK   33  A    between atoms: _88  and  _90
REMARK   34  A    between atoms: _90  and  _91
REMARK   35  A    between atoms: _90  and  _93
REMARK   36  A    between atoms: _93  and  _94
REMARK   37  A    between atoms: _94  and  _95
REMARK   38  A    between atoms: _97  and  _99
REMARK   39  A    between atoms: _99  and  _100
REMARK   40  A    between atoms: _99  and  _102
REMARK   41  A    between atoms: _102  and  _103
REMARK   42  A    between atoms: _109  and  _111
REMARK   43  A    between atoms: _111  and  _112
REMARK   44  A    between atoms: _111  and  _114
REMARK   45  A    between atoms: _114  and  _115
REMARK   46  A    between atoms: _120  and  _121
REMARK   47  A    between atoms: _123  and  _125
REMARK   48  A    between atoms: _125  and  _126
REMARK   49  A    between atoms: _125  and  _128
REMARK   50  A    between atoms: _130  and  _132
REMARK   51  A    between atoms: _132  and  _133
REMARK   52  A    between atoms: _132  and  _135
REMARK   53  A    between atoms: _135  and  _136
REMARK   54  A    between atoms: _139  and  _141
REMARK   55  A    between atoms: _141  and  _142
REMARK   56  A    between atoms: _141  and  _144
REMARK   57  A    between atoms: _144  and  _145
REMARK   58  A    between atoms: _145  and  _146
REMARK   59  A    between atoms: _146  and  _147
REMARK   60  A    between atoms: _156  and  _158
REMARK   61  A    between atoms: _158  and  _159
REMARK   62  A    between atoms: _158  and  _161
REMARK   63  A    between atoms: _161  and  _162
REMARK   64  A    between atoms: _165  and  _167
REMARK   65  A    between atoms: _167  and  _168
REMARK   66  A    between atoms: _167  and  _170
REMARK   67  A    between atoms: _170  and  _171
REMARK   68  A    between atoms: _171  and  _172
REMARK   69  A    between atoms: _175  and  _177
REMARK   70  A    between atoms: _177  and  _178
REMARK   71  A    between atoms: _177  and  _180
REMARK   72  A    between atoms: _183  and  _185
REMARK   73  A    between atoms: _185  and  _186
REMARK   74  A    between atoms: _189  and  _191
REMARK   75  A    between atoms: _191  and  _192
REMARK   76  A    between atoms: _191  and  _194
REMARK   77  A    between atoms: _194  and  _195
REMARK   78  A    between atoms: _200  and  _201
REMARK   79  A    between atoms: _203  and  _205
REMARK   80  A    between atoms: _205  and  _206
REMARK   81  A    between atoms: _205  and  _208
REMARK   82  A    between atoms: _208  and  _209
REMARK   83  A    between atoms: _212  and  _214
REMARK   84  A    between atoms: _214  and  _215
REMARK   85  A    between atoms: _214  and  _217
REMARK   86  A    between atoms: _217  and  _218
REMARK   87  A    between atoms: _220  and  _222
REMARK   88  A    between atoms: _222  and  _223
REMARK   89  A    between atoms: _226  and  _228
REMARK   90  A    between atoms: _228  and  _229
REMARK   91  A    between atoms: _228  and  _231
REMARK   92  A    between atoms: _231  and  _232
REMARK   93  A    between atoms: _237  and  _238
REMARK   94  A    between atoms: _240  and  _242
REMARK   95  A    between atoms: _242  and  _243
REMARK   96  A    between atoms: _242  and  _245
REMARK   97  A    between atoms: _245  and  _246
REMARK   98  A    between atoms: _251  and  _252
REMARK   99  A    between atoms: _254  and  _256
REMARK  100  A    between atoms: _256  and  _257
REMARK  101  A    between atoms: _256  and  _259
REMARK  102  A    between atoms: _259  and  _260
REMARK  103  A    between atoms: _263  and  _265
REMARK  104  A    between atoms: _265  and  _266
REMARK  105  A    between atoms: _269  and  _271
REMARK  106  A    between atoms: _271  and  _272
REMARK  107  A    between atoms: _271  and  _274
REMARK  108  A    between atoms: _277  and  _279
REMARK  109  A    between atoms: _279  and  _280
REMARK  110  A    between atoms: _279  and  _282
REMARK  111  A    between atoms: _282  and  _283
REMARK  112  A    between atoms: _285  and  _287
REMARK  113  A    between atoms: _287  and  _288
REMARK  114  A    between atoms: _287  and  _290
REMARK  115  A    between atoms: _290  and  _291
REMARK  116  A    between atoms: _291  and  _292
REMARK  117  A    between atoms: _292  and  _293
REMARK  118  A    between atoms: _293  and  _294
REMARK  119  A    between atoms: _298  and  _300
REMARK  120  A    between atoms: _300  and  _301
REMARK  121  A    between atoms: _300  and  _303
REMARK  122  A    between atoms: _303  and  _304
REMARK  123  A    between atoms: _306  and  _308
REMARK  124  A    between atoms: _308  and  _309
REMARK  125  A    between atoms: _308  and  _311
REMARK  126  A    between atoms: _311  and  _312
REMARK  127  A    between atoms: _315  and  _317
REMARK  128  A    between atoms: _317  and  _318
REMARK  129  A    between atoms: _317  and  _320
REMARK  130  A    between atoms: _320  and  _321
REMARK  131  A    between atoms: _326  and  _328
REMARK  132  A    between atoms: _328  and  _329
REMARK  133  A    between atoms: _328  and  _331
REMARK  134  A    between atoms: _331  and  _332
REMARK  135  A    between atoms: _335  and  _337
REMARK  136  A    between atoms: _337  and  _338
REMARK  137  A    between atoms: _337  and  _340
REMARK  138  A    between atoms: _340  and  _341
REMARK  139  A    between atoms: _344  and  _346
REMARK  140  A    between atoms: _346  and  _347
REMARK  141  A    between atoms: _346  and  _349
REMARK  142  A    between atoms: _349  and  _350
REMARK  143  A    between atoms: _353  and  _355
REMARK  144  A    between atoms: _355  and  _356
REMARK  145  A    between atoms: _355  and  _358
REMARK  146  A    between atoms: _358  and  _359
REMARK  147  A    between atoms: _359  and  _360
REMARK  148  A    between atoms: _365  and  _367
REMARK  149  A    between atoms: _367  and  _368
REMARK  150  A    between atoms: _371  and  _373
REMARK  151  A    between atoms: _373  and  _374
REMARK  152  A    between atoms: _373  and  _376
REMARK  153  A    between atoms: _379  and  _381
REMARK  154  A    between atoms: _381  and  _382
REMARK  155  A    between atoms: _381  and  _384
REMARK  156  A    between atoms: _384  and  _385
REMARK  157  A    between atoms: _388  and  _390
REMARK  158  A    between atoms: _390  and  _391
REMARK  159  A    between atoms: _393  and  _395
REMARK  160  A    between atoms: _395  and  _396
REMARK  161  A    between atoms: _395  and  _398
REMARK  162  A    between atoms: _398  and  _399
REMARK  163  A    between atoms: _404  and  _405
REMARK  164  A    between atoms: _407  and  _409
REMARK  165  A    between atoms: _409  and  _410
REMARK  166  A    between atoms: _409  and  _412
REMARK  167  A    between atoms: _412  and  _413
REMARK  168  A    between atoms: _413  and  _414
REMARK  169  A    between atoms: _414  and  _415
REMARK  170  A    between atoms: _424  and  _426
REMARK  171  A    between atoms: _426  and  _427
REMARK  172  A    between atoms: _426  and  _429
REMARK  173  A    between atoms: _429  and  _430
REMARK  174  A    between atoms: _436  and  _438
REMARK  175  A    between atoms: _438  and  _439
REMARK  176  A    between atoms: _438  and  _441
REMARK  177  A    between atoms: _441  and  _442
REMARK  178  A    between atoms: _445  and  _447
REMARK  179  A    between atoms: _447  and  _448
REMARK  180  A    between atoms: _447  and  _450
REMARK  181  A    between atoms: _450  and  _451
REMARK  182  A    between atoms: _454  and  _456
REMARK  183  A    between atoms: _456  and  _457
REMARK  184  A    between atoms: _456  and  _459
REMARK  185  A    between atoms: _459  and  _460
REMARK  186  A    between atoms: _470  and  _472
REMARK  187  A    between atoms: _472  and  _473
REMARK  188  A    between atoms: _472  and  _475
REMARK  189  A    between atoms: _475  and  _476
REMARK  190  A    between atoms: _479  and  _481
REMARK  191  A    between atoms: _481  and  _482
REMARK  192  A    between atoms: _481  and  _484
REMARK  193  A    between atoms: _484  and  _485
REMARK  194  A    between atoms: _485  and  _486
REMARK  195  A    between atoms: _491  and  _493
REMARK  196  A    between atoms: _493  and  _494
REMARK  197  A    between atoms: _493  and  _496
REMARK  198  A    between atoms: _496  and  _497
REMARK  199  A    between atoms: _500  and  _502
REMARK  200  A    between atoms: _502  and  _503
REMARK  201  A    between atoms: _502  and  _505
REMARK  202  A    between atoms: _505  and  _506
REMARK  203  A    between atoms: _506  and  _507
REMARK  204  A    between atoms: _512  and  _514
REMARK  205  A    between atoms: _514  and  _515
REMARK  206  A    between atoms: _518  and  _520
REMARK  207  A    between atoms: _520  and  _521
REMARK  208  A    between atoms: _520  and  _523
REMARK  209  A    between atoms: _523  and  _524
REMARK  210  A    between atoms: _527  and  _529
REMARK  211  A    between atoms: _529  and  _530
REMARK  212  A    between atoms: _529  and  _532
REMARK  213  A    between atoms: _532  and  _533
REMARK  214  A    between atoms: _536  and  _538
REMARK  215  A    between atoms: _538  and  _539
REMARK  216  A    between atoms: _538  and  _541
REMARK  217  A    between atoms: _544  and  _546
REMARK  218  A    between atoms: _546  and  _547
REMARK  219  A    between atoms: _546  and  _549
REMARK  220  A    between atoms: _551  and  _553
REMARK  221  A    between atoms: _553  and  _554
REMARK  222  A    between atoms: _553  and  _556
REMARK  223  A    between atoms: _559  and  _561
REMARK  224  A    between atoms: _561  and  _562
REMARK  225  A    between atoms: _561  and  _564
REMARK  226  A    between atoms: _564  and  _565
REMARK  227  A    between atoms: _570  and  _572
REMARK  228  A    between atoms: _572  and  _573
REMARK  229  A    between atoms: _572  and  _575
REMARK  230  A    between atoms: _575  and  _576
REMARK  231  A    between atoms: _582  and  _584
REMARK  232  A    between atoms: _584  and  _585
REMARK  233  A    between atoms: _584  and  _587
REMARK  234  A    between atoms: _587  and  _588
REMARK  235  A    between atoms: _591  and  _593
REMARK  236  A    between atoms: _593  and  _594
REMARK  237  A    between atoms: _593  and  _596
REMARK  238  A    between atoms: _596  and  _597
REMARK  239  A    between atoms: _600  and  _602
REMARK  240  A    between atoms: _602  and  _603
REMARK  241  A    between atoms: _602  and  _605
REMARK  242  A    between atoms: _605  and  _606
REMARK                            x       y       z     vdW  Elec       q    Type
REMARK                         _______ _______ _______ _____ _____    ______ ____
ROOT
ATOM      1  C   GLU A   1     -10.212 -50.575 -17.894  0.00  0.00    +0.238 C 
ATOM      2  N   VAL A   2      -9.017 -50.489 -17.317  0.00  0.00    -0.297 N 
ATOM      3  H   VAL A   2      -8.732 -51.210 -16.625  0.00  0.00    +0.150 HD
ATOM      4  O   GLU A   1     -10.563 -49.810 -18.787  0.00  0.00    -0.274 OA
ENDROOT
BRANCH   1   5
ATOM      5  CA  GLU A   1     -11.146 -51.665 -17.388  0.00  0.00    +0.145 C 
BRANCH   5   6
ATOM      6  N   GLU A   1     -10.417 -52.895 -17.107  0.00  0.00    -0.238 NA
ATOM      7  H   GLU A   1     -10.471 -53.308 -16.154  0.00  0.00    +0.142 HD
ENDBRANCH   5   6
BRANCH   5   8
ATOM      8  CB  GLU A   1     -11.827 -51.143 -16.115  0.00  0.00    +0.038 C 
BRANCH   8   9
ATOM      9  CG  GLU A   1     -13.018 -51.940 -15.646  0.00  0.00    +0.116 C 
BRANCH   9  10
ATOM     10  CD  GLU A   1     -13.218 -51.882 -14.136  0.00  0.00    +0.365 C 
ATOM     11  OE2 GLU A   1     -13.507 -52.938 -13.520  0.00  0.00    -0.246 OA
ATOM     12  OE1 GLU A   1     -13.099 -50.778 -13.571  0.00  0.00    -0.246 OA
ENDBRANCH   9  10
ENDBRANCH   8   9
ENDBRANCH   5   8
ENDBRANCH   1   5
BRANCH   2  13
ATOM     13  CA  VAL A   2      -8.103 -49.406 -17.636  0.00  0.00    +0.148 C 
BRANCH  13  14
ATOM     14  C   VAL A   2      -7.237 -49.659 -18.868  0.00  0.00    +0.241 C 
ATOM     15  N   ALA A   3      -6.745 -50.878 -19.023  0.00  0.00    -0.298 N 
ATOM     16  H   ALA A   3      -7.118 -51.654 -18.440  0.00  0.00    +0.150 HD
ATOM     17  O   VAL A   2      -6.996 -48.755 -19.662  0.00  0.00    -0.273 OA
BRANCH  15  18
ATOM     18  CA  ALA A   3      -5.695 -51.157 -19.990  0.00  0.00    +0.137 C 
ATOM     19  CB  ALA A   3      -4.357 -51.291 -19.287  0.00  0.00    +0.030 C 
BRANCH  18  20
ATOM     20  C   ALA A   3      -5.946 -52.397 -20.834  0.00  0.00    +0.227 C 
ATOM     21  O   ALA A   3      -5.122 -52.704 -21.680  0.00  0.00    -0.286 OA
ENDBRANCH  18  20
ENDBRANCH  15  18
ENDBRANCH  13  14
BRANCH  13  22
ATOM     22  CB  VAL A   2      -7.204 -49.138 -16.410  0.00  0.00    +0.027 C 
ATOM     23  CG2 VAL A   2      -8.051 -48.682 -15.233  0.00  0.00    +0.002 C 
ATOM     24  CG1 VAL A   2      -6.138 -48.125 -16.730  0.00  0.00    +0.002 C 
ENDBRANCH  13  22
ENDBRANCH   2  13
TORSDOF 10
REMARK  Name = ../refined-set-2016/4wn5/4wn5_pocket.pdb
REMARK  242 active torsions:
REMARK  status: ('A' for Active; 'I' for Inactive)
REMARK    1  A    between atoms: _1  and  _5
REMARK    2  A    between atoms: _5  and  _6
REMARK    3  A    between atoms: _5  and  _8
REMARK    4  A    between atoms: _8  and  _9
REMARK    5  A    between atoms: _9  and  _10
REMARK    6  A    between atoms: _10  and  _11
REMARK    7  A    between atoms: _20  and  _22
REMARK    8  A    between atoms: _22  and  _23
REMARK    9  A    between atoms: _25  and  _27
REMARK   10  A    between atoms: _27  and  _28
REMARK   11  A    between atoms: _31  and  _33
REMARK   12  A    between atoms: _33  and  _34
REMARK   13  A    between atoms: _33  and  _36
REMARK   14  A    between atoms: _36  and  _37
REMARK   15  A    between atoms: _43  and  _45
REMARK   16  A    between atoms: _45  and  _46
REMARK   17  A    between atoms: _45  and  _48
REMARK   18  A    between atoms: _48  and  _49
REMARK   19  A    between atoms: _52  and  _54
REMARK   20  A    between atoms: _54  and  _55
REMARK   21  A    between atoms: _54  and  _57
REMARK   22  A    between atoms: _57  and  _58
REMARK   23  A    between atoms: _60  and  _62
REMARK   24  A    between atoms: _62  and  _63
REMARK   25  A    between atoms: _62  and  _65
REMARK   26  A    between atoms: _65  and  _66
REMARK   27  A    between atoms: _66  and  _67
REMARK   28  A    between atoms: _67  and  _68
REMARK   29  A    between atoms: _77  and  _79
REMARK   30  A    between atoms: _79  and  _80
REMARK   31  A    between atoms: _79  and  _82
REMARK   32  A    between atoms: _82  and  _83
REMARK   33  A    between atoms: _88  and  _90
REMARK   34  A    between atoms: _90  and  _91
REMARK   35  A    between atoms: _90  and  _93
REMARK   36  A    between atoms: _93  and  _94
REMARK   37  A    between atoms: _94  and  _95
REMARK   38  A    between atoms: _97  and  _99
REMARK   39  A    between atoms: _99  and  _100
REMARK   40  A    between atoms: _99  and  _102
REMARK   41  A    between atoms: _102  and  _103
REMARK   42  A    between atoms: _109  and  _111
REMARK   43  A    between atoms: _111  and  _112
REMARK   44  A    between atoms: _111  and  _114
REMARK   45  A    between atoms: _114  and  _115
REMARK   46  A    between atoms: _120  and  _121
REMARK   47  A    between atoms: _123  and  _125
REMARK   48  A    between atoms: _125  and  _126
REMARK   49  A    between atoms: _125  and  _128
REMARK   50  A    between atoms: _130  and  _132
REMARK   51  A    between atoms: _132  and  _133
REMARK   52  A    between atoms: _132  and  _135
REMARK   53  A    between atoms: _135  and  _136
REMARK   54  A    between atoms: _139  and  _141
REMARK   55  A    between atoms: _141  and  _142
REMARK   56  A    between atoms: _141  and  _144
REMARK   57  A    between atoms: _144  and  _145
REMARK   58  A    between atoms: _145  and  _146
REMARK   59  A    between atoms: _146  and  _147
REMARK   60  A    between atoms: _156  and  _158
REMARK   61  A    between atoms: _158  and  _159
REMARK   62  A    between atoms: _158  and  _161
REMARK   63  A    between atoms: _161  and  _162
REMARK   64  A    between atoms: _165  and  _167
REMARK   65  A    between atoms: _167  and  _168
REMARK   66  A    between atoms: _167  and  _170
REMARK   67  A    between atoms: _170  and  _171
REMARK   68  A    between atoms: _171  and  _172
REMARK   69  A    between atoms: _175  and  _177
REMARK   70  A    between atoms: _177  and  _178
REMARK   71  A    between atoms: _177  and  _180
REMARK   72  A    between atoms: _183  and  _185
REMARK   73  A    between atoms: _185  and  _186
REMARK   74  A    between atoms: _189  and  _191
REMARK   75  A    between atoms: _191  and  _192
REMARK   76  A    between atoms: _191  and  _194
REMARK   77  A    between atoms: _194  and  _195
REMARK   78  A    between atoms: _200  and  _201
REMARK   79  A    between atoms: _203  and  _205
REMARK   80  A    between atoms: _205  and  _206
REMARK   81  A    between atoms: _205  and  _208
REMARK   82  A    between atoms: _208  and  _209
REMARK   83  A    between atoms: _212  and  _214
REMARK   84  A    between atoms: _214  and  _215
REMARK   85  A    between atoms: _214  and  _217
REMARK   86  A    between atoms: _217  and  _218
REMARK   87  A    between atoms: _220  and  _222
REMARK   88  A    between atoms: _222  and  _223
REMARK   89  A    between atoms: _226  and  _228
REMARK   90  A    between atoms: _228  and  _229
REMARK   91  A    between atoms: _228  and  _231
REMARK   92  A    between atoms: _231  and  _232
REMARK   93  A    between atoms: _237  and  _238
REMARK   94  A    between atoms: _240  and  _242
REMARK   95  A    between atoms: _242  and  _243
REMARK   96  A    between atoms: _242  and  _245
REMARK   97  A    between atoms: _245  and  _246
REMARK   98  A    between atoms: _251  and  _252
REMARK   99  A    between atoms: _254  and  _256
REMARK  100  A    between atoms: _256  and  _257
REMARK  101  A    between atoms: _256  and  _259
REMARK  102  A    between atoms: _259  and  _260
REMARK  103  A    between atoms: _263  and  _265
REMARK  104  A    between atoms: _265  and  _266
REMARK  105  A    between atoms: _269  and  _271
REMARK  106  A    between atoms: _271  and  _272
REMARK  107  A    between atoms: _271  and  _274
REMARK  108  A    between atoms: _277  and  _279
REMARK  109  A    between atoms: _279  and  _280
REMARK  110  A    between atoms: _279  and  _282
REMARK  111  A    between atoms: _282  and  _283
REMARK  112  A    between atoms: _285  and  _287
REMARK  113  A    between atoms: _287  and  _288
REMARK  114  A    between atoms: _287  and  _290
REMARK  115  A    between atoms: _290  and  _291
REMARK  116  A    between atoms: _291  and  _292
REMARK  117  A    between atoms: _292  and  _293
REMARK  118  A    between atoms: _293  and  _294
REMARK  119  A    between atoms: _298  and  _300
REMARK  120  A    between atoms: _300  and  _301
REMARK  121  A    between atoms: _300  and  _303
REMARK  122  A    between atoms: _303  and  _304
REMARK  123  A    between atoms: _306  and  _308
REMARK  124  A    between atoms: _308  and  _309
REMARK  125  A    between atoms: _308  and  _311
REMARK  126  A    between atoms: _311  and  _312
REMARK  127  A    between atoms: _315  and  _317
REMARK  128  A    between atoms: _317  and  _318
REMARK  129  A    between atoms: _317  and  _320
REMARK  130  A    between atoms: _320  and  _321
REMARK  131  A    between atoms: _326  and  _328
REMARK  132  A    between atoms: _328  and  _329
REMARK  133  A    between atoms: _328  and  _331
REMARK  134  A    between atoms: _331  and  _332
REMARK  135  A    between atoms: _335  and  _337
REMARK  136  A    between atoms: _337  and  _338
REMARK  137  A    between atoms: _337  and  _340
REMARK  138  A    between atoms: _340  and  _341
REMARK  139  A    between atoms: _344  and  _346
REMARK  140  A    between atoms: _346  and  _347
REMARK  141  A    between atoms: _346  and  _349
REMARK  142  A    between atoms: _349  and  _350
REMARK  143  A    between atoms: _353  and  _355
REMARK  144  A    between atoms: _355  and  _356
REMARK  145  A    between atoms: _355  and  _358
REMARK  146  A    between atoms: _358  and  _359
REMARK  147  A    between atoms: _359  and  _360
REMARK  148  A    between atoms: _365  and  _367
REMARK  149  A    between atoms: _367  and  _368
REMARK  150  A    between atoms: _371  and  _373
REMARK  151  A    between atoms: _373  and  _374
REMARK  152  A    between atoms: _373  and  _376
REMARK  153  A    between atoms: _379  and  _381
REMARK  154  A    between atoms: _381  and  _382
REMARK  155  A    between atoms: _381  and  _384
REMARK  156  A    between atoms: _384  and  _385
REMARK  157  A    between atoms: _388  and  _390
REMARK  158  A    between atoms: _390  and  _391
REMARK  159  A    between atoms: _393  and  _395
REMARK  160  A    between atoms: _395  and  _396
REMARK  161  A    between atoms: _395  and  _398
REMARK  162  A    between atoms: _398  and  _399
REMARK  163  A    between atoms: _404  and  _405
REMARK  164  A    between atoms: _407  and  _409
REMARK  165  A    between atoms: _409  and  _410
REMARK  166  A    between atoms: _409  and  _412
REMARK  167  A    between atoms: _412  and  _413
REMARK  168  A    between atoms: _413  and  _414
REMARK  169  A    between atoms: _414  and  _415
REMARK  170  A    between atoms: _424  and  _426
REMARK  171  A    between atoms: _426  and  _427
REMARK  172  A    between atoms: _426  and  _429
REMARK  173  A    between atoms: _429  and  _430
REMARK  174  A    between atoms: _436  and  _438
REMARK  175  A    between atoms: _438  and  _439
REMARK  176  A    between atoms: _438  and  _441
REMARK  177  A    between atoms: _441  and  _442
REMARK  178  A    between atoms: _445  and  _447
REMARK  179  A    between atoms: _447  and  _448
REMARK  180  A    between atoms: _447  and  _450
REMARK  181  A    between atoms: _450  and  _451
REMARK  182  A    between atoms: _454  and  _456
REMARK  183  A    between atoms: _456  and  _457
REMARK  184  A    between atoms: _456  and  _459
REMARK  185  A    between atoms: _459  and  _460
REMARK  186  A    between atoms: _470  and  _472
REMARK  187  A    between atoms: _472  and  _473
REMARK  188  A    between atoms: _472  and  _475
REMARK  189  A    between atoms: _475  and  _476
REMARK  190  A    between atoms: _479  and  _481
REMARK  191  A    between atoms: _481  and  _482
REMARK  192  A    between atoms: _481  and  _484
REMARK  193  A    between atoms: _484  and  _485
REMARK  194  A    between atoms: _485  and  _486
REMARK  195  A    between atoms: _491  and  _493
REMARK  196  A    between atoms: _493  and  _494
REMARK  197  A    between atoms: _493  and  _496
REMARK  198  A    between atoms: _496  and  _497
REMARK  199  A    between atoms: _500  and  _502
REMARK  200  A    between atoms: _502  and  _503
REMARK  201  A    between atoms: _502  and  _505
REMARK  202  A    between atoms: _505  and  _506
REMARK  203  A    between atoms: _506  and  _507
REMARK  204  A    between atoms: _512  and  _514
REMARK  205  A    between atoms: _514  and  _515
REMARK  206  A    between atoms: _518  and  _520
REMARK  207  A    between atoms: _520  and  _521
REMARK  208  A    between atoms: _520  and  _523
REMARK  209  A    between atoms: _523  and  _524
REMARK  210  A    between atoms: _527  and  _529
REMARK  211  A    between atoms: _529  and  _530
REMARK  212  A    between atoms: _529  and  _532
REMARK  213  A    between atoms: _532  and  _533
REMARK  214  A    between atoms: _536  and  _538
REMARK  215  A    between atoms: _538  and  _539
REMARK  216  A    between atoms: _538  and  _541
REMARK  217  A    between atoms: _544  and  _546
REMARK  218  A    between atoms: _546  and  _547
REMARK  219  A    between atoms: _546  and  _549
REMARK  220  A    between atoms: _551  and  _553
REMARK  221  A    between atoms: _553  and  _554
REMARK  222  A    between atoms: _553  and  _556
REMARK  223  A    between atoms: _559  and  _561
REMARK  224  A    between atoms: _561  and  _562
REMARK  225  A    between atoms: _561  and  _564
REMARK  226  A    between atoms: _564  and  _565
REMARK  227  A    between atoms: _570  and  _572
REMARK  228  A    between atoms: _572  and  _573
REMARK  229  A    between atoms: _572  and  _575
REMARK  230  A    between atoms: _575  and  _576
REMARK  231  A    between atoms: _582  and  _584
REMARK  232  A    between atoms: _584  and  _585
REMARK  233  A    between atoms: _584  and  _587
REMARK  234  A    between atoms: _587  and  _588
REMARK  235  A    between atoms: _591  and  _593
REMARK  236  A    between atoms: _593  and  _594
REMARK  237  A    between atoms: _593  and  _596
REMARK  238  A    between atoms: _596  and  _597
REMARK  239  A    between atoms: _600  and  _602
REMARK  240  A    between atoms: _602  and  _603
REMARK  241  A    between atoms: _602  and  _605
REMARK  242  A    between atoms: _605  and  _606
REMARK                            x       y       z     vdW  Elec       q    Type
REMARK                         _______ _______ _______ _____ _____    ______ ____
ROOT
ATOM      1  CG  TYR A   1      -2.861 -55.995 -19.891  0.00  0.00    -0.020 A 
ATOM      2  CD2 TYR A   1      -2.465 -54.689 -19.680  0.00  0.00    -0.001 A 
ATOM      3  CE2 TYR A   1      -1.490 -54.096 -20.460  0.00  0.00    +0.036 A 
ATOM      4  CZ  TYR A   1      -0.904 -54.821 -21.474  0.00  0.00    +0.134 A 
ATOM      5  CE1 TYR A   1      -1.282 -56.130 -21.695  0.00  0.00    +0.036 A 
ATOM      6  CD1 TYR A   1      -2.248 -56.704 -20.901  0.00  0.00    -0.001 A 
ENDROOT
BRANCH   4   7
ATOM      7  OH  TYR A   1       0.067 -54.268 -22.287  0.00  0.00    -0.506 OA
ATOM      8  HH  TYR A   1       0.363 -54.941 -22.950  0.00  0.00    +0.292 HD
ENDBRANCH   4   7
BRANCH   1   9
ATOM      9  CB  TYR A   1      -3.898 -56.636 -19.027  0.00  0.00    +0.051 C 
BRANCH   9  10
ATOM     10  CA  TYR A   1      -5.258 -56.863 -19.681  0.00  0.00    +0.137 C 
BRANCH  10  11
ATOM     11  N   TYR A   1      -5.794 -55.616 -20.190  0.00  0.00    -0.239 NA
ATOM     12  H   TYR A   1      -5.309 -54.727 -19.956  0.00  0.00    +0.142 HD
ENDBRANCH  10  11
BRANCH  10  13
ATOM     13  C   TYR A   1      -6.154 -57.431 -18.601  0.00  0.00    +0.224 C 
ATOM     14  O   TYR A   1      -6.788 -56.689 -17.883  0.00  0.00    -0.287 OA
ENDBRANCH  10  13
ENDBRANCH   9  10
ENDBRANCH   1   9
TORSDOF 5
REMARK  Name = ../refined-set-2016/4wn5/4wn5_pocket.pdb
REMARK  242 active torsions:
REMARK  status: ('A' for Active; 'I' for Inactive)
REMARK    1  A    between atoms: _1  and  _5
REMARK    2  A    between atoms: _5  and  _6
REMARK    3  A    between atoms: _5  and  _8
REMARK    4  A    between atoms: _8  and  _9
REMARK    5  A    between atoms: _9  and  _10
REMARK    6  A    between atoms: _10  and  _11
REMARK    7  A    between atoms: _20  and  _22
REMARK    8  A    between atoms: _22  and  _23
REMARK    9  A    between atoms: _25  and  _27
REMARK   10  A    between atoms: _27  and  _28
REMARK   11  A    between atoms: _31  and  _33
REMARK   12  A    between atoms: _33  and  _34
REMARK   13  A    between atoms: _33  and  _36
REMARK   14  A    between atoms: _36  and  _37
REMARK   15  A    between atoms: _43  and  _45
REMARK   16  A    between atoms: _45  and  _46
REMARK   17  A    between atoms: _45  and  _48
REMARK   18  A    between atoms: _48  and  _49
REMARK   19  A    between atoms: _52  and  _54
REMARK   20  A    between atoms: _54  and  _55
REMARK   21  A    between atoms: _54  and  _57
REMARK   22  A    between atoms: _57  and  _58
REMARK   23  A    between atoms: _60  and  _62
REMARK   24  A    between atoms: _62  and  _63
REMARK   25  A    between atoms: _62  and  _65
REMARK   26  A    between atoms: _65  and  _66
REMARK   27  A    between atoms: _66  and  _67
REMARK   28  A    between atoms: _67  and  _68
REMARK   29  A    between atoms: _77  and  _79
REMARK   30  A    between atoms: _79  and  _80
REMARK   31  A    between atoms: _79  and  _82
REMARK   32  A    between atoms: _82  and  _83
REMARK   33  A    between atoms: _88  and  _90
REMARK   34  A    between atoms: _90  and  _91
REMARK   35  A    between atoms: _90  and  _93
REMARK   36  A    between atoms: _93  and  _94
REMARK   37  A    between atoms: _94  and  _95
REMARK   38  A    between atoms: _97  and  _99
REMARK   39  A    between atoms: _99  and  _100
REMARK   40  A    between atoms: _99  and  _102
REMARK   41  A    between atoms: _102  and  _103
REMARK   42  A    between atoms: _109  and  _111
REMARK   43  A    between atoms: _111  and  _112
REMARK   44  A    between atoms: _111  and  _114
REMARK   45  A    between atoms: _114  and  _115
REMARK   46  A    between atoms: _120  and  _121
REMARK   47  A    between atoms: _123  and  _125
REMARK   48  A    between atoms: _125  and  _126
REMARK   49  A    between atoms: _125  and  _128
REMARK   50  A    between atoms: _130  and  _132
REMARK   51  A    between atoms: _132  and  _133
REMARK   52  A    between atoms: _132  and  _135
REMARK   53  A    between atoms: _135  and  _136
REMARK   54  A    between atoms: _139  and  _141
REMARK   55  A    between atoms: _141  and  _142
REMARK   56  A    between atoms: _141  and  _144
REMARK   57  A    between atoms: _144  and  _145
REMARK   58  A    between atoms: _145  and  _146
REMARK   59  A    between atoms: _146  and  _147
REMARK   60  A    between atoms: _156  and  _158
REMARK   61  A    between atoms: _158  and  _159
REMARK   62  A    between atoms: _158  and  _161
REMARK   63  A    between atoms: _161  and  _162
REMARK   64  A    between atoms: _165  and  _167
REMARK   65  A    between atoms: _167  and  _168
REMARK   66  A    between atoms: _167  and  _170
REMARK   67  A    between atoms: _170  and  _171
REMARK   68  A    between atoms: _171  and  _172
REMARK   69  A    between atoms: _175  and  _177
REMARK   70  A    between atoms: _177  and  _178
REMARK   71  A    between atoms: _177  and  _180
REMARK   72  A    between atoms: _183  and  _185
REMARK   73  A    between atoms: _185  and  _186
REMARK   74  A    between atoms: _189  and  _191
REMARK   75  A    between atoms: _191  and  _192
REMARK   76  A    between atoms: _191  and  _194
REMARK   77  A    between atoms: _194  and  _195
REMARK   78  A    between atoms: _200  and  _201
REMARK   79  A    between atoms: _203  and  _205
REMARK   80  A    between atoms: _205  and  _206
REMARK   81  A    between atoms: _205  and  _208
REMARK   82  A    between atoms: _208  and  _209
REMARK   83  A    between atoms: _212  and  _214
REMARK   84  A    between atoms: _214  and  _215
REMARK   85  A    between atoms: _214  and  _217
REMARK   86  A    between atoms: _217  and  _218
REMARK   87  A    between atoms: _220  and  _222
REMARK   88  A    between atoms: _222  and  _223
REMARK   89  A    between atoms: _226  and  _228
REMARK   90  A    between atoms: _228  and  _229
REMARK   91  A    between atoms: _228  and  _231
REMARK   92  A    between atoms: _231  and  _232
REMARK   93  A    between atoms: _237  and  _238
REMARK   94  A    between atoms: _240  and  _242
REMARK   95  A    between atoms: _242  and  _243
REMARK   96  A    between atoms: _242  and  _245
REMARK   97  A    between atoms: _245  and  _246
REMARK   98  A    between atoms: _251  and  _252
REMARK   99  A    between atoms: _254  and  _256
REMARK  100  A    between atoms: _256  and  _257
REMARK  101  A    between atoms: _256  and  _259
REMARK  102  A    between atoms: _259  and  _260
REMARK  103  A    between atoms: _263  and  _265
REMARK  104  A    between atoms: _265  and  _266
REMARK  105  A    between atoms: _269  and  _271
REMARK  106  A    between atoms: _271  and  _272
REMARK  107  A    between atoms: _271  and  _274
REMARK  108  A    between atoms: _277  and  _279
REMARK  109  A    between atoms: _279  and  _280
REMARK  110  A    between atoms: _279  and  _282
REMARK  111  A    between atoms: _282  and  _283
REMARK  112  A    between atoms: _285  and  _287
REMARK  113  A    between atoms: _287  and  _288
REMARK  114  A    between atoms: _287  and  _290
REMARK  115  A    between atoms: _290  and  _291
REMARK  116  A    between atoms: _291  and  _292
REMARK  117  A    between atoms: _292  and  _293
REMARK  118  A    between atoms: _293  and  _294
REMARK  119  A    between atoms: _298  and  _300
REMARK  120  A    between atoms: _300  and  _301
REMARK  121  A    between atoms: _300  and  _303
REMARK  122  A    between atoms: _303  and  _304
REMARK  123  A    between atoms: _306  and  _308
REMARK  124  A    between atoms: _308  and  _309
REMARK  125  A    between atoms: _308  and  _311
REMARK  126  A    between atoms: _311  and  _312
REMARK  127  A    between atoms: _315  and  _317
REMARK  128  A    between atoms: _317  and  _318
REMARK  129  A    between atoms: _317  and  _320
REMARK  130  A    between atoms: _320  and  _321
REMARK  131  A    between atoms: _326  and  _328
REMARK  132  A    between atoms: _328  and  _329
REMARK  133  A    between atoms: _328  and  _331
REMARK  134  A    between atoms: _331  and  _332
REMARK  135  A    between atoms: _335  and  _337
REMARK  136  A    between atoms: _337  and  _338
REMARK  137  A    between atoms: _337  and  _340
REMARK  138  A    between atoms: _340  and  _341
REMARK  139  A    between atoms: _344  and  _346
REMARK  140  A    between atoms: _346  and  _347
REMARK  141  A    between atoms: _346  and  _349
REMARK  142  A    between atoms: _349  and  _350
REMARK  143  A    between atoms: _353  and  _355
REMARK  144  A    between atoms: _355  and  _356
REMARK  145  A    between atoms: _355  and  _358
REMARK  146  A    between atoms: _358  and  _359
REMARK  147  A    between atoms: _359  and  _360
REMARK  148  A    between atoms: _365  and  _367
REMARK  149  A    between atoms: _367  and  _368
REMARK  150  A    between atoms: _371  and  _373
REMARK  151  A    between atoms: _373  and  _374
REMARK  152  A    between atoms: _373  and  _376
REMARK  153  A    between atoms: _379  and  _381
REMARK  154  A    between atoms: _381  and  _382
REMARK  155  A    between atoms: _381  and  _384
REMARK  156  A    between atoms: _384  and  _385
REMARK  157  A    between atoms: _388  and  _390
REMARK  158  A    between atoms: _390  and  _391
REMARK  159  A    between atoms: _393  and  _395
REMARK  160  A    between atoms: _395  and  _396
REMARK  161  A    between atoms: _395  and  _398
REMARK  162  A    between atoms: _398  and  _399
REMARK  163  A    between atoms: _404  and  _405
REMARK  164  A    between atoms: _407  and  _409
REMARK  165  A    between atoms: _409  and  _410
REMARK  166  A    between atoms: _409  and  _412
REMARK  167  A    between atoms: _412  and  _413
REMARK  168  A    between atoms: _413  and  _414
REMARK  169  A    between atoms: _414  and  _415
REMARK  170  A    between atoms: _424  and  _426
REMARK  171  A    between atoms: _426  and  _427
REMARK  172  A    between atoms: _426  and  _429
REMARK  173  A    between atoms: _429  and  _430
REMARK  174  A    between atoms: _436  and  _438
REMARK  175  A    between atoms: _438  and  _439
REMARK  176  A    between atoms: _438  and  _441
REMARK  177  A    between atoms: _441  and  _442
REMARK  178  A    between atoms: _445  and  _447
REMARK  179  A    between atoms: _447  and  _448
REMARK  180  A    between atoms: _447  and  _450
REMARK  181  A    between atoms: _450  and  _451
REMARK  182  A    between atoms: _454  and  _456
REMARK  183  A    between atoms: _456  and  _457
REMARK  184  A    between atoms: _456  and  _459
REMARK  185  A    between atoms: _459  and  _460
REMARK  186  A    between atoms: _470  and  _472
REMARK  187  A    between atoms: _472  and  _473
REMARK  188  A    between atoms: _472  and  _475
REMARK  189  A    between atoms: _475  and  _476
REMARK  190  A    between atoms: _479  and  _481
REMARK  191  A    between atoms: _481  and  _482
REMARK  192  A    between atoms: _481  and  _484
REMARK  193  A    between atoms: _484  and  _485
REMARK  194  A    between atoms: _485  and  _486
REMARK  195  A    between atoms: _491  and  _493
REMARK  196  A    between atoms: _493  and  _494
REMARK  197  A    between atoms: _493  and  _496
REMARK  198  A    between atoms: _496  and  _497
REMARK  199  A    between atoms: _500  and  _502
REMARK  200  A    between atoms: _502  and  _503
REMARK  201  A    between atoms: _502  and  _505
REMARK  202  A    between atoms: _505  and  _506
REMARK  203  A    between atoms: _506  and  _507
REMARK  204  A    between atoms: _512  and  _514
REMARK  205  A    between atoms: _514  and  _515
REMARK  206  A    between atoms: _518  and  _520
REMARK  207  A    between atoms: _520  and  _521
REMARK  208  A    between atoms: _520  and  _523
REMARK  209  A    between atoms: _523  and  _524
REMARK  210  A    between atoms: _527  and  _529
REMARK  211  A    between atoms: _529  and  _530
REMARK  212  A    between atoms: _529  and  _532
REMARK  213  A    between atoms: _532  and  _533
REMARK  214  A    between atoms: _536  and  _538
REMARK  215  A    between atoms: _538  and  _539
REMARK  216  A    between atoms: _538  and  _541
REMARK  217  A    between atoms: _544  and  _546
REMARK  218  A    between atoms: _546  and  _547
REMARK  219  A    between atoms: _546  and  _549
REMARK  220  A    between atoms: _551  and  _553
REMARK  221  A    between atoms: _553  and  _554
REMARK  222  A    between atoms: _553  and  _556
REMARK  223  A    between atoms: _559  and  _561
REMARK  224  A    between atoms: _561  and  _562
REMARK  225  A    between atoms: _561  and  _564
REMARK  226  A    between atoms: _564  and  _565
REMARK  227  A    between atoms: _570  and  _572
REMARK  228  A    between atoms: _572  and  _573
REMARK  229  A    between atoms: _572  and  _575
REMARK  230  A    between atoms: _575  and  _576
REMARK  231  A    between atoms: _582  and  _584
REMARK  232  A    between atoms: _584  and  _585
REMARK  233  A    between atoms: _584  and  _587
REMARK  234  A    between atoms: _587  and  _588
REMARK  235  A    between atoms: _591  and  _593
REMARK  236  A    between atoms: _593  and  _594
REMARK  237  A    between atoms: _593  and  _596
REMARK  238  A    between atoms: _596  and  _597
REMARK  239  A    between atoms: _600  and  _602
REMARK  240  A    between atoms: _602  and  _603
REMARK  241  A    between atoms: _602  and  _605
REMARK  242  A    between atoms: _605  and  _606
REMARK                            x       y       z     vdW  Elec       q    Type
REMARK                         _______ _______ _______ _____ _____    ______ ____
ROOT
ATOM      1  CA  LEU A   1       0.674 -59.587 -16.482  0.00  0.00    +0.133 C 
ENDROOT
BRANCH   1   2
ATOM      2  N   LEU A   1      -0.516 -60.310 -16.931  0.00  0.00    -0.239 NA
ATOM      3  H   LEU A   1      -1.358 -60.331 -16.321  0.00  0.00    +0.142 HD
ENDBRANCH   1   2
BRANCH   1   4
ATOM      4  C   LEU A   1       1.521 -60.355 -15.488  0.00  0.00    +0.224 C 
ATOM      5  O   LEU A   1       2.706 -60.071 -15.362  0.00  0.00    -0.287 OA
ENDBRANCH   1   4
BRANCH   1   6
ATOM      6  CB  LEU A   1       0.277 -58.248 -15.863  0.00  0.00    +0.025 C 
BRANCH   6   7
ATOM      7  CG  LEU A   1      -0.382 -57.267 -16.830  0.00  0.00    +0.002 C 
ATOM      8  CD2 LEU A   1      -0.767 -56.015 -16.094  0.00  0.00    +0.000 C 
ATOM      9  CD1 LEU A   1       0.526 -56.924 -17.998  0.00  0.00    +0.000 C 
ENDBRANCH   6   7
ENDBRANCH   1   6
TORSDOF 4
REMARK  Name = ../refined-set-2016/4wn5/4wn5_pocket.pdb
REMARK  242 active torsions:
REMARK  status: ('A' for Active; 'I' for Inactive)
REMARK    1  A    between atoms: _1  and  _5
REMARK    2  A    between atoms: _5  and  _6
REMARK    3  A    between atoms: _5  and  _8
REMARK    4  A    between atoms: _8  and  _9
REMARK    5  A    between atoms: _9  and  _10
REMARK    6  A    between atoms: _10  and  _11
REMARK    7  A    between atoms: _20  and  _22
REMARK    8  A    between atoms: _22  and  _23
REMARK    9  A    between atoms: _25  and  _27
REMARK   10  A    between atoms: _27  and  _28
REMARK   11  A    between atoms: _31  and  _33
REMARK   12  A    between atoms: _33  and  _34
REMARK   13  A    between atoms: _33  and  _36
REMARK   14  A    between atoms: _36  and  _37
REMARK   15  A    between atoms: _43  and  _45
REMARK   16  A    between atoms: _45  and  _46
REMARK   17  A    between atoms: _45  and  _48
REMARK   18  A    between atoms: _48  and  _49
REMARK   19  A    between atoms: _52  and  _54
REMARK   20  A    between atoms: _54  and  _55
REMARK   21  A    between atoms: _54  and  _57
REMARK   22  A    between atoms: _57  and  _58
REMARK   23  A    between atoms: _60  and  _62
REMARK   24  A    between atoms: _62  and  _63
REMARK   25  A    between atoms: _62  and  _65
REMARK   26  A    between atoms: _65  and  _66
REMARK   27  A    between atoms: _66  and  _67
REMARK   28  A    between atoms: _67  and  _68
REMARK   29  A    between atoms: _77  and  _79
REMARK   30  A    between atoms: _79  and  _80
REMARK   31  A    between atoms: _79  and  _82
REMARK   32  A    between atoms: _82  and  _83
REMARK   33  A    between atoms: _88  and  _90
REMARK   34  A    between atoms: _90  and  _91
REMARK   35  A    between atoms: _90  and  _93
REMARK   36  A    between atoms: _93  and  _94
REMARK   37  A    between atoms: _94  and  _95
REMARK   38  A    between atoms: _97  and  _99
REMARK   39  A    between atoms: _99  and  _100
REMARK   40  A    between atoms: _99  and  _102
REMARK   41  A    between atoms: _102  and  _103
REMARK   42  A    between atoms: _109  and  _111
REMARK   43  A    between atoms: _111  and  _112
REMARK   44  A    between atoms: _111  and  _114
REMARK   45  A    between atoms: _114  and  _115
REMARK   46  A    between atoms: _120  and  _121
REMARK   47  A    between atoms: _123  and  _125
REMARK   48  A    between atoms: _125  and  _126
REMARK   49  A    between atoms: _125  and  _128
REMARK   50  A    between atoms: _130  and  _132
REMARK   51  A    between atoms: _132  and  _133
REMARK   52  A    between atoms: _132  and  _135
REMARK   53  A    between atoms: _135  and  _136
REMARK   54  A    between atoms: _139  and  _141
REMARK   55  A    between atoms: _141  and  _142
REMARK   56  A    between atoms: _141  and  _144
REMARK   57  A    between atoms: _144  and  _145
REMARK   58  A    between atoms: _145  and  _146
REMARK   59  A    between atoms: _146  and  _147
REMARK   60  A    between atoms: _156  and  _158
REMARK   61  A    between atoms: _158  and  _159
REMARK   62  A    between atoms: _158  and  _161
REMARK   63  A    between atoms: _161  and  _162
REMARK   64  A    between atoms: _165  and  _167
REMARK   65  A    between atoms: _167  and  _168
REMARK   66  A    between atoms: _167  and  _170
REMARK   67  A    between atoms: _170  and  _171
REMARK   68  A    between atoms: _171  and  _172
REMARK   69  A    between atoms: _175  and  _177
REMARK   70  A    between atoms: _177  and  _178
REMARK   71  A    between atoms: _177  and  _180
REMARK   72  A    between atoms: _183  and  _185
REMARK   73  A    between atoms: _185  and  _186
REMARK   74  A    between atoms: _189  and  _191
REMARK   75  A    between atoms: _191  and  _192
REMARK   76  A    between atoms: _191  and  _194
REMARK   77  A    between atoms: _194  and  _195
REMARK   78  A    between atoms: _200  and  _201
REMARK   79  A    between atoms: _203  and  _205
REMARK   80  A    between atoms: _205  and  _206
REMARK   81  A    between atoms: _205  and  _208
REMARK   82  A    between atoms: _208  and  _209
REMARK   83  A    between atoms: _212  and  _214
REMARK   84  A    between atoms: _214  and  _215
REMARK   85  A    between atoms: _214  and  _217
REMARK   86  A    between atoms: _217  and  _218
REMARK   87  A    between atoms: _220  and  _222
REMARK   88  A    between atoms: _222  and  _223
REMARK   89  A    between atoms: _226  and  _228
REMARK   90  A    between atoms: _228  and  _229
REMARK   91  A    between atoms: _228  and  _231
REMARK   92  A    between atoms: _231  and  _232
REMARK   93  A    between atoms: _237  and  _238
REMARK   94  A    between atoms: _240  and  _242
REMARK   95  A    between atoms: _242  and  _243
REMARK   96  A    between atoms: _242  and  _245
REMARK   97  A    between atoms: _245  and  _246
REMARK   98  A    between atoms: _251  and  _252
REMARK   99  A    between atoms: _254  and  _256
REMARK  100  A    between atoms: _256  and  _257
REMARK  101  A    between atoms: _256  and  _259
REMARK  102  A    between atoms: _259  and  _260
REMARK  103  A    between atoms: _263  and  _265
REMARK  104  A    between atoms: _265  and  _266
REMARK  105  A    between atoms: _269  and  _271
REMARK  106  A    between atoms: _271  and  _272
REMARK  107  A    between atoms: _271  and  _274
REMARK  108  A    between atoms: _277  and  _279
REMARK  109  A    between atoms: _279  and  _280
REMARK  110  A    between atoms: _279  and  _282
REMARK  111  A    between atoms: _282  and  _283
REMARK  112  A    between atoms: _285  and  _287
REMARK  113  A    between atoms: _287  and  _288
REMARK  114  A    between atoms: _287  and  _290
REMARK  115  A    between atoms: _290  and  _291
REMARK  116  A    between atoms: _291  and  _292
REMARK  117  A    between atoms: _292  and  _293
REMARK  118  A    between atoms: _293  and  _294
REMARK  119  A    between atoms: _298  and  _300
REMARK  120  A    between atoms: _300  and  _301
REMARK  121  A    between atoms: _300  and  _303
REMARK  122  A    between atoms: _303  and  _304
REMARK  123  A    between atoms: _306  and  _308
REMARK  124  A    between atoms: _308  and  _309
REMARK  125  A    between atoms: _308  and  _311
REMARK  126  A    between atoms: _311  and  _312
REMARK  127  A    between atoms: _315  and  _317
REMARK  128  A    between atoms: _317  and  _318
REMARK  129  A    between atoms: _317  and  _320
REMARK  130  A    between atoms: _320  and  _321
REMARK  131  A    between atoms: _326  and  _328
REMARK  132  A    between atoms: _328  and  _329
REMARK  133  A    between atoms: _328  and  _331
REMARK  134  A    between atoms: _331  and  _332
REMARK  135  A    between atoms: _335  and  _337
REMARK  136  A    between atoms: _337  and  _338
REMARK  137  A    between atoms: _337  and  _340
REMARK  138  A    between atoms: _340  and  _341
REMARK  139  A    between atoms: _344  and  _346
REMARK  140  A    between atoms: _346  and  _347
REMARK  141  A    between atoms: _346  and  _349
REMARK  142  A    between atoms: _349  and  _350
REMARK  143  A    between atoms: _353  and  _355
REMARK  144  A    between atoms: _355  and  _356
REMARK  145  A    between atoms: _355  and  _358
REMARK  146  A    between atoms: _358  and  _359
REMARK  147  A    between atoms: _359  and  _360
REMARK  148  A    between atoms: _365  and  _367
REMARK  149  A    between atoms: _367  and  _368
REMARK  150  A    between atoms: _371  and  _373
REMARK  151  A    between atoms: _373  and  _374
REMARK  152  A    between atoms: _373  and  _376
REMARK  153  A    between atoms: _379  and  _381
REMARK  154  A    between atoms: _381  and  _382
REMARK  155  A    between atoms: _381  and  _384
REMARK  156  A    between atoms: _384  and  _385
REMARK  157  A    between atoms: _388  and  _390
REMARK  158  A    between atoms: _390  and  _391
REMARK  159  A    between atoms: _393  and  _395
REMARK  160  A    between atoms: _395  and  _396
REMARK  161  A    between atoms: _395  and  _398
REMARK  162  A    between atoms: _398  and  _399
REMARK  163  A    between atoms: _404  and  _405
REMARK  164  A    between atoms: _407  and  _409
REMARK  165  A    between atoms: _409  and  _410
REMARK  166  A    between atoms: _409  and  _412
REMARK  167  A    between atoms: _412  and  _413
REMARK  168  A    between atoms: _413  and  _414
REMARK  169  A    between atoms: _414  and  _415
REMARK  170  A    between atoms: _424  and  _426
REMARK  171  A    between atoms: _426  and  _427
REMARK  172  A    between atoms: _426  and  _429
REMARK  173  A    between atoms: _429  and  _430
REMARK  174  A    between atoms: _436  and  _438
REMARK  175  A    between atoms: _438  and  _439
REMARK  176  A    between atoms: _438  and  _441
REMARK  177  A    between atoms: _441  and  _442
REMARK  178  A    between atoms: _445  and  _447
REMARK  179  A    between atoms: _447  and  _448
REMARK  180  A    between atoms: _447  and  _450
REMARK  181  A    between atoms: _450  and  _451
REMARK  182  A    between atoms: _454  and  _456
REMARK  183  A    between atoms: _456  and  _457
REMARK  184  A    between atoms: _456  and  _459
REMARK  185  A    between atoms: _459  and  _460
REMARK  186  A    between atoms: _470  and  _472
REMARK  187  A    between atoms: _472  and  _473
REMARK  188  A    between atoms: _472  and  _475
REMARK  189  A    between atoms: _475  and  _476
REMARK  190  A    between atoms: _479  and  _481
REMARK  191  A    between atoms: _481  and  _482
REMARK  192  A    between atoms: _481  and  _484
REMARK  193  A    between atoms: _484  and  _485
REMARK  194  A    between atoms: _485  and  _486
REMARK  195  A    between atoms: _491  and  _493
REMARK  196  A    between atoms: _493  and  _494
REMARK  197  A    between atoms: _493  and  _496
REMARK  198  A    between atoms: _496  and  _497
REMARK  199  A    between atoms: _500  and  _502
REMARK  200  A    between atoms: _502  and  _503
REMARK  201  A    between atoms: _502  and  _505
REMARK  202  A    between atoms: _505  and  _506
REMARK  203  A    between atoms: _506  and  _507
REMARK  204  A    between atoms: _512  and  _514
REMARK  205  A    between atoms: _514  and  _515
REMARK  206  A    between atoms: _518  and  _520
REMARK  207  A    between atoms: _520  and  _521
REMARK  208  A    between atoms: _520  and  _523
REMARK  209  A    between atoms: _523  and  _524
REMARK  210  A    between atoms: _527  and  _529
REMARK  211  A    between atoms: _529  and  _530
REMARK  212  A    between atoms: _529  and  _532
REMARK  213  A    between atoms: _532  and  _533
REMARK  214  A    between atoms: _536  and  _538
REMARK  215  A    between atoms: _538  and  _539
REMARK  216  A    between atoms: _538  and  _541
REMARK  217  A    between atoms: _544  and  _546
REMARK  218  A    between atoms: _546  and  _547
REMARK  219  A    between atoms: _546  and  _549
REMARK  220  A    between atoms: _551  and  _553
REMARK  221  A    between atoms: _553  and  _554
REMARK  222  A    between atoms: _553  and  _556
REMARK  223  A    between atoms: _559  and  _561
REMARK  224  A    between atoms: _561  and  _562
REMARK  225  A    between atoms: _561  and  _564
REMARK  226  A    between atoms: _564  and  _565
REMARK  227  A    between atoms: _570  and  _572
REMARK  228  A    between atoms: _572  and  _573
REMARK  229  A    between atoms: _572  and  _575
REMARK  230  A    between atoms: _575  and  _576
REMARK  231  A    between atoms: _582  and  _584
REMARK  232  A    between atoms: _584  and  _585
REMARK  233  A    between atoms: _584  and  _587
REMARK  234  A    between atoms: _587  and  _588
REMARK  235  A    between atoms: _591  and  _593
REMARK  236  A    between atoms: _593  and  _594
REMARK  237  A    between atoms: _593  and  _596
REMARK  238  A    between atoms: _596  and  _597
REMARK  239  A    between atoms: _600  and  _602
REMARK  240  A    between atoms: _602  and  _603
REMARK  241  A    between atoms: _602  and  _605
REMARK  242  A    between atoms: _605  and  _606
REMARK                            x       y       z     vdW  Elec       q    Type
REMARK                         _______ _______ _______ _____ _____    ______ ____
ROOT
ATOM      1  C   ALA A   2       7.835 -53.322 -16.539  0.00  0.00    +0.241 C 
ATOM      2  N   TYR A   3       9.145 -53.559 -16.574  0.00  0.00    -0.298 N 
ATOM      3  H   TYR A   3       9.557 -54.286 -15.955  0.00  0.00    +0.150 HD
ATOM      4  O   ALA A   2       7.298 -52.473 -17.238  0.00  0.00    -0.273 OA
ENDROOT
BRANCH   1   5
ATOM      5  CA  ALA A   2       6.973 -54.152 -15.619  0.00  0.00    +0.149 C 
ATOM      6  CB  ALA A   2       6.702 -53.371 -14.332  0.00  0.00    +0.031 C 
BRANCH   5   8
ATOM      7  C   SER A   1       7.831 -56.279 -16.305  0.00  0.00    +0.241 C 
ATOM      8  N   ALA A   2       7.571 -55.435 -15.326  0.00  0.00    -0.297 N 
ATOM      9  H   ALA A   2       7.796 -55.692 -14.344  0.00  0.00    +0.150 HD
ATOM     10  O   SER A   1       7.588 -56.030 -17.476  0.00  0.00    -0.274 OA
BRANCH   7  11
ATOM     11  CA  SER A   1       8.494 -57.570 -15.910  0.00  0.00    +0.174 C 
BRANCH  11  12
ATOM     12  N   SER A   1       7.816 -58.743 -16.459  0.00  0.00    -0.236 NA
ATOM     13  H   SER A   1       8.275 -59.284 -17.219  0.00  0.00    +0.142 HD
ENDBRANCH  11  12
BRANCH  11  14
ATOM     14  CB  SER A   1       9.927 -57.514 -16.391  0.00  0.00    +0.163 C 
BRANCH  14  15
ATOM     15  OG  SER A   1      10.596 -56.398 -15.850  0.00  0.00    -0.380 OA
ATOM     16  H   SER A   1      10.594 -56.460 -14.862  0.00  0.00    +0.211 HD
ENDBRANCH  14  15
ENDBRANCH  11  14
ENDBRANCH   7  11
ENDBRANCH   5   8
ENDBRANCH   1   5
BRANCH   2  17
ATOM     17  CA  TYR A   3      10.001 -52.804 -17.475  0.00  0.00    +0.141 C 
BRANCH  17  18
ATOM     18  C   TYR A   3       9.551 -52.930 -18.919  0.00  0.00    +0.227 C 
ATOM     19  O   TYR A   3       9.716 -52.006 -19.714  0.00  0.00    -0.286 OA
ENDBRANCH  17  18
BRANCH  17  20
ATOM     20  CB  TYR A   3      11.432 -53.310 -17.363  0.00  0.00    +0.054 C 
BRANCH  20  21
ATOM     21  CG  TYR A   3      12.132 -52.995 -16.061  0.00  0.00    -0.020 A 
ATOM     22  CD2 TYR A   3      12.527 -54.010 -15.190  0.00  0.00    -0.001 A 
ATOM     23  CE2 TYR A   3      13.206 -53.730 -14.018  0.00  0.00    +0.036 A 
ATOM     24  CZ  TYR A   3      13.515 -52.417 -13.719  0.00  0.00    +0.134 A 
ATOM     25  CE1 TYR A   3      13.141 -51.391 -14.567  0.00  0.00    +0.036 A 
ATOM     26  CD1 TYR A   3      12.465 -51.688 -15.741  0.00  0.00    -0.001 A 
BRANCH  24  27
ATOM     27  OH  TYR A   3      14.187 -52.096 -12.557  0.00  0.00    -0.506 OA
ATOM     28  HH  TYR A   3      14.319 -51.116 -12.514  0.00  0.00    +0.292 HD
ENDBRANCH  24  27
ENDBRANCH  20  21
ENDBRANCH  17  20
ENDBRANCH   2  17
TORSDOF 11
REMARK  Name = ../refined-set-2016/4wn5/4wn5_pocket.pdb
REMARK  242 active torsions:
REMARK  status: ('A' for Active; 'I' for Inactive)
REMARK    1  A    between atoms: _1  and  _5
REMARK    2  A    between atoms: _5  and  _6
REMARK    3  A    between atoms: _5  and  _8
REMARK    4  A    between atoms: _8  and  _9
REMARK    5  A    between atoms: _9  and  _10
REMARK    6  A    between atoms: _10  and  _11
REMARK    7  A    between atoms: _20  and  _22
REMARK    8  A    between atoms: _22  and  _23
REMARK    9  A    between atoms: _25  and  _27
REMARK   10  A    between atoms: _27  and  _28
REMARK   11  A    between atoms: _31  and  _33
REMARK   12  A    between atoms: _33  and  _34
REMARK   13  A    between atoms: _33  and  _36
REMARK   14  A    between atoms: _36  and  _37
REMARK   15  A    between atoms: _43  and  _45
REMARK   16  A    between atoms: _45  and  _46
REMARK   17  A    between atoms: _45  and  _48
REMARK   18  A    between atoms: _48  and  _49
REMARK   19  A    between atoms: _52  and  _54
REMARK   20  A    between atoms: _54  and  _55
REMARK   21  A    between atoms: _54  and  _57
REMARK   22  A    between atoms: _57  and  _58
REMARK   23  A    between atoms: _60  and  _62
REMARK   24  A    between atoms: _62  and  _63
REMARK   25  A    between atoms: _62  and  _65
REMARK   26  A    between atoms: _65  and  _66
REMARK   27  A    between atoms: _66  and  _67
REMARK   28  A    between atoms: _67  and  _68
REMARK   29  A    between atoms: _77  and  _79
REMARK   30  A    between atoms: _79  and  _80
REMARK   31  A    between atoms: _79  and  _82
REMARK   32  A    between atoms: _82  and  _83
REMARK   33  A    between atoms: _88  and  _90
REMARK   34  A    between atoms: _90  and  _91
REMARK   35  A    between atoms: _90  and  _93
REMARK   36  A    between atoms: _93  and  _94
REMARK   37  A    between atoms: _94  and  _95
REMARK   38  A    between atoms: _97  and  _99
REMARK   39  A    between atoms: _99  and  _100
REMARK   40  A    between atoms: _99  and  _102
REMARK   41  A    between atoms: _102  and  _103
REMARK   42  A    between atoms: _109  and  _111
REMARK   43  A    between atoms: _111  and  _112
REMARK   44  A    between atoms: _111  and  _114
REMARK   45  A    between atoms: _114  and  _115
REMARK   46  A    between atoms: _120  and  _121
REMARK   47  A    between atoms: _123  and  _125
REMARK   48  A    between atoms: _125  and  _126
REMARK   49  A    between atoms: _125  and  _128
REMARK   50  A    between atoms: _130  and  _132
REMARK   51  A    between atoms: _132  and  _133
REMARK   52  A    between atoms: _132  and  _135
REMARK   53  A    between atoms: _135  and  _136
REMARK   54  A    between atoms: _139  and  _141
REMARK   55  A    between atoms: _141  and  _142
REMARK   56  A    between atoms: _141  and  _144
REMARK   57  A    between atoms: _144  and  _145
REMARK   58  A    between atoms: _145  and  _146
REMARK   59  A    between atoms: _146  and  _147
REMARK   60  A    between atoms: _156  and  _158
REMARK   61  A    between atoms: _158  and  _159
REMARK   62  A    between atoms: _158  and  _161
REMARK   63  A    between atoms: _161  and  _162
REMARK   64  A    between atoms: _165  and  _167
REMARK   65  A    between atoms: _167  and  _168
REMARK   66  A    between atoms: _167  and  _170
REMARK   67  A    between atoms: _170  and  _171
REMARK   68  A    between atoms: _171  and  _172
REMARK   69  A    between atoms: _175  and  _177
REMARK   70  A    between atoms: _177  and  _178
REMARK   71  A    between atoms: _177  and  _180
REMARK   72  A    between atoms: _183  and  _185
REMARK   73  A    between atoms: _185  and  _186
REMARK   74  A    between atoms: _189  and  _191
REMARK   75  A    between atoms: _191  and  _192
REMARK   76  A    between atoms: _191  and  _194
REMARK   77  A    between atoms: _194  and  _195
REMARK   78  A    between atoms: _200  and  _201
REMARK   79  A    between atoms: _203  and  _205
REMARK   80  A    between atoms: _205  and  _206
REMARK   81  A    between atoms: _205  and  _208
REMARK   82  A    between atoms: _208  and  _209
REMARK   83  A    between atoms: _212  and  _214
REMARK   84  A    between atoms: _214  and  _215
REMARK   85  A    between atoms: _214  and  _217
REMARK   86  A    between atoms: _217  and  _218
REMARK   87  A    between atoms: _220  and  _222
REMARK   88  A    between atoms: _222  and  _223
REMARK   89  A    between atoms: _226  and  _228
REMARK   90  A    between atoms: _228  and  _229
REMARK   91  A    between atoms: _228  and  _231
REMARK   92  A    between atoms: _231  and  _232
REMARK   93  A    between atoms: _237  and  _238
REMARK   94  A    between atoms: _240  and  _242
REMARK   95  A    between atoms: _242  and  _243
REMARK   96  A    between atoms: _242  and  _245
REMARK   97  A    between atoms: _245  and  _246
REMARK   98  A    between atoms: _251  and  _252
REMARK   99  A    between atoms: _254  and  _256
REMARK  100  A    between atoms: _256  and  _257
REMARK  101  A    between atoms: _256  and  _259
REMARK  102  A    between atoms: _259  and  _260
REMARK  103  A    between atoms: _263  and  _265
REMARK  104  A    between atoms: _265  and  _266
REMARK  105  A    between atoms: _269  and  _271
REMARK  106  A    between atoms: _271  and  _272
REMARK  107  A    between atoms: _271  and  _274
REMARK  108  A    between atoms: _277  and  _279
REMARK  109  A    between atoms: _279  and  _280
REMARK  110  A    between atoms: _279  and  _282
REMARK  111  A    between atoms: _282  and  _283
REMARK  112  A    between atoms: _285  and  _287
REMARK  113  A    between atoms: _287  and  _288
REMARK  114  A    between atoms: _287  and  _290
REMARK  115  A    between atoms: _290  and  _291
REMARK  116  A    between atoms: _291  and  _292
REMARK  117  A    between atoms: _292  and  _293
REMARK  118  A    between atoms: _293  and  _294
REMARK  119  A    between atoms: _298  and  _300
REMARK  120  A    between atoms: _300  and  _301
REMARK  121  A    between atoms: _300  and  _303
REMARK  122  A    between atoms: _303  and  _304
REMARK  123  A    between atoms: _306  and  _308
REMARK  124  A    between atoms: _308  and  _309
REMARK  125  A    between atoms: _308  and  _311
REMARK  126  A    between atoms: _311  and  _312
REMARK  127  A    between atoms: _315  and  _317
REMARK  128  A    between atoms: _317  and  _318
REMARK  129  A    between atoms: _317  and  _320
REMARK  130  A    between atoms: _320  and  _321
REMARK  131  A    between atoms: _326  and  _328
REMARK  132  A    between atoms: _328  and  _329
REMARK  133  A    between atoms: _328  and  _331
REMARK  134  A    between atoms: _331  and  _332
REMARK  135  A    between atoms: _335  and  _337
REMARK  136  A    between atoms: _337  and  _338
REMARK  137  A    between atoms: _337  and  _340
REMARK  138  A    between atoms: _340  and  _341
REMARK  139  A    between atoms: _344  and  _346
REMARK  140  A    between atoms: _346  and  _347
REMARK  141  A    between atoms: _346  and  _349
REMARK  142  A    between atoms: _349  and  _350
REMARK  143  A    between atoms: _353  and  _355
REMARK  144  A    between atoms: _355  and  _356
REMARK  145  A    between atoms: _355  and  _358
REMARK  146  A    between atoms: _358  and  _359
REMARK  147  A    between atoms: _359  and  _360
REMARK  148  A    between atoms: _365  and  _367
REMARK  149  A    between atoms: _367  and  _368
REMARK  150  A    between atoms: _371  and  _373
REMARK  151  A    between atoms: _373  and  _374
REMARK  152  A    between atoms: _373  and  _376
REMARK  153  A    between atoms: _379  and  _381
REMARK  154  A    between atoms: _381  and  _382
REMARK  155  A    between atoms: _381  and  _384
REMARK  156  A    between atoms: _384  and  _385
REMARK  157  A    between atoms: _388  and  _390
REMARK  158  A    between atoms: _390  and  _391
REMARK  159  A    between atoms: _393  and  _395
REMARK  160  A    between atoms: _395  and  _396
REMARK  161  A    between atoms: _395  and  _398
REMARK  162  A    between atoms: _398  and  _399
REMARK  163  A    between atoms: _404  and  _405
REMARK  164  A    between atoms: _407  and  _409
REMARK  165  A    between atoms: _409  and  _410
REMARK  166  A    between atoms: _409  and  _412
REMARK  167  A    between atoms: _412  and  _413
REMARK  168  A    between atoms: _413  and  _414
REMARK  169  A    between atoms: _414  and  _415
REMARK  170  A    between atoms: _424  and  _426
REMARK  171  A    between atoms: _426  and  _427
REMARK  172  A    between atoms: _426  and  _429
REMARK  173  A    between atoms: _429  and  _430
REMARK  174  A    between atoms: _436  and  _438
REMARK  175  A    between atoms: _438  and  _439
REMARK  176  A    between atoms: _438  and  _441
REMARK  177  A    between atoms: _441  and  _442
REMARK  178  A    between atoms: _445  and  _447
REMARK  179  A    between atoms: _447  and  _448
REMARK  180  A    between atoms: _447  and  _450
REMARK  181  A    between atoms: _450  and  _451
REMARK  182  A    between atoms: _454  and  _456
REMARK  183  A    between atoms: _456  and  _457
REMARK  184  A    between atoms: _456  and  _459
REMARK  185  A    between atoms: _459  and  _460
REMARK  186  A    between atoms: _470  and  _472
REMARK  187  A    between atoms: _472  and  _473
REMARK  188  A    between atoms: _472  and  _475
REMARK  189  A    between atoms: _475  and  _476
REMARK  190  A    between atoms: _479  and  _481
REMARK  191  A    between atoms: _481  and  _482
REMARK  192  A    between atoms: _481  and  _484
REMARK  193  A    between atoms: _484  and  _485
REMARK  194  A    between atoms: _485  and  _486
REMARK  195  A    between atoms: _491  and  _493
REMARK  196  A    between atoms: _493  and  _494
REMARK  197  A    between atoms: _493  and  _496
REMARK  198  A    between atoms: _496  and  _497
REMARK  199  A    between atoms: _500  and  _502
REMARK  200  A    between atoms: _502  and  _503
REMARK  201  A    between atoms: _502  and  _505
REMARK  202  A    between atoms: _505  and  _506
REMARK  203  A    between atoms: _506  and  _507
REMARK  204  A    between atoms: _512  and  _514
REMARK  205  A    between atoms: _514  and  _515
REMARK  206  A    between atoms: _518  and  _520
REMARK  207  A    between atoms: _520  and  _521
REMARK  208  A    between atoms: _520  and  _523
REMARK  209  A    between atoms: _523  and  _524
REMARK  210  A    between atoms: _527  and  _529
REMARK  211  A    between atoms: _529  and  _530
REMARK  212  A    between atoms: _529  and  _532
REMARK  213  A    between atoms: _532  and  _533
REMARK  214  A    between atoms: _536  and  _538
REMARK  215  A    between atoms: _538  and  _539
REMARK  216  A    between atoms: _538  and  _541
REMARK  217  A    between atoms: _544  and  _546
REMARK  218  A    between atoms: _546  and  _547
REMARK  219  A    between atoms: _546  and  _549
REMARK  220  A    between atoms: _551  and  _553
REMARK  221  A    between atoms: _553  and  _554
REMARK  222  A    between atoms: _553  and  _556
REMARK  223  A    between atoms: _559  and  _561
REMARK  224  A    between atoms: _561  and  _562
REMARK  225  A    between atoms: _561  and  _564
REMARK  226  A    between atoms: _564  and  _565
REMARK  227  A    between atoms: _570  and  _572
REMARK  228  A    between atoms: _572  and  _573
REMARK  229  A    between atoms: _572  and  _575
REMARK  230  A    between atoms: _575  and  _576
REMARK  231  A    between atoms: _582  and  _584
REMARK  232  A    between atoms: _584  and  _585
REMARK  233  A    between atoms: _584  and  _587
REMARK  234  A    between atoms: _587  and  _588
REMARK  235  A    between atoms: _591  and  _593
REMARK  236  A    between atoms: _593  and  _594
REMARK  237  A    between atoms: _593  and  _596
REMARK  238  A    between atoms: _596  and  _597
REMARK  239  A    between atoms: _600  and  _602
REMARK  240  A    between atoms: _602  and  _603
REMARK  241  A    between atoms: _602  and  _605
REMARK  242  A    between atoms: _605  and  _606
REMARK                            x       y       z     vdW  Elec       q    Type
REMARK                         _______ _______ _______ _____ _____    ______ ____
ROOT
ATOM      1  CA  TYR A   1       5.442 -52.083 -20.274  0.00  0.00    +0.149 C 
ENDROOT
BRANCH   1   2
ATOM      2  C   TYR A   1       5.657 -50.583 -20.120  0.00  0.00    +0.239 C 
ATOM      3  N   ILE A   2       6.888 -50.169 -19.865  0.00  0.00    -0.298 N 
ATOM      4  H   ILE A   2       7.642 -50.872 -19.727  0.00  0.00    +0.150 HD
ATOM      5  O   TYR A   1       4.720 -49.814 -20.217  0.00  0.00    -0.274 OA
BRANCH   3   6
ATOM      6  CA  ILE A   2       7.214 -48.747 -19.773  0.00  0.00    +0.137 C 
BRANCH   6   7
ATOM      7  CB  ILE A   2       8.379 -48.492 -18.791  0.00  0.00    +0.026 C 
ATOM      8  CG2 ILE A   2       8.627 -46.984 -18.647  0.00  0.00    +0.002 C 
BRANCH   7   9
ATOM      9  CG1 ILE A   2       8.150 -49.135 -17.435  0.00  0.00    +0.002 C 
ATOM     10  CD1 ILE A   2       6.941 -48.736 -16.783  0.00  0.00    +0.000 C 
ENDBRANCH   7   9
ENDBRANCH   6   7
BRANCH   6  11
ATOM     11  C   ILE A   2       7.644 -48.274 -21.142  0.00  0.00    +0.227 C 
ATOM     12  O   ILE A   2       8.484 -48.896 -21.777  0.00  0.00    -0.286 OA
ENDBRANCH   6  11
ENDBRANCH   3   6
ENDBRANCH   1   2
BRANCH   1  13
ATOM     13  N   TYR A   1       6.666 -52.861 -20.056  0.00  0.00    -0.238 NA
ATOM     14  H   TYR A   1       7.039 -52.934 -19.088  0.00  0.00    +0.142 HD
ENDBRANCH   1  13
BRANCH   1  15
ATOM     15  CB  TYR A   1       4.342 -52.551 -19.312  0.00  0.00    +0.053 C 
BRANCH  15  16
ATOM     16  CG  TYR A   1       3.992 -53.998 -19.522  0.00  0.00    -0.020 A 
ATOM     17  CD2 TYR A   1       4.745 -54.986 -18.929  0.00  0.00    -0.001 A 
ATOM     18  CE2 TYR A   1       4.471 -56.290 -19.122  0.00  0.00    +0.036 A 
ATOM     19  CZ  TYR A   1       3.422 -56.659 -19.922  0.00  0.00    +0.134 A 
ATOM     20  CE1 TYR A   1       2.649 -55.698 -20.540  0.00  0.00    +0.036 A 
ATOM     21  CD1 TYR A   1       2.945 -54.375 -20.338  0.00  0.00    -0.001 A 
BRANCH  19  22
ATOM     22  OH  TYR A   1       3.156 -57.991 -20.114  0.00  0.00    -0.506 OA
ATOM     23  HH  TYR A   1       2.237 -58.191 -19.804  0.00  0.00    +0.292 HD
ENDBRANCH  19  22
ENDBRANCH  15  16
ENDBRANCH   1  15
TORSDOF 9
REMARK  Name = ../refined-set-2016/4wn5/4wn5_pocket.pdb
REMARK  242 active torsions:
REMARK  status: ('A' for Active; 'I' for Inactive)
REMARK    1  A    between atoms: _1  and  _5
REMARK    2  A    between atoms: _5  and  _6
REMARK    3  A    between atoms: _5  and  _8
REMARK    4  A    between atoms: _8  and  _9
REMARK    5  A    between atoms: _9  and  _10
REMARK    6  A    between atoms: _10  and  _11
REMARK    7  A    between atoms: _20  and  _22
REMARK    8  A    between atoms: _22  and  _23
REMARK    9  A    between atoms: _25  and  _27
REMARK   10  A    between atoms: _27  and  _28
REMARK   11  A    between atoms: _31  and  _33
REMARK   12  A    between atoms: _33  and  _34
REMARK   13  A    between atoms: _33  and  _36
REMARK   14  A    between atoms: _36  and  _37
REMARK   15  A    between atoms: _43  and  _45
REMARK   16  A    between atoms: _45  and  _46
REMARK   17  A    between atoms: _45  and  _48
REMARK   18  A    between atoms: _48  and  _49
REMARK   19  A    between atoms: _52  and  _54
REMARK   20  A    between atoms: _54  and  _55
REMARK   21  A    between atoms: _54  and  _57
REMARK   22  A    between atoms: _57  and  _58
REMARK   23  A    between atoms: _60  and  _62
REMARK   24  A    between atoms: _62  and  _63
REMARK   25  A    between atoms: _62  and  _65
REMARK   26  A    between atoms: _65  and  _66
REMARK   27  A    between atoms: _66  and  _67
REMARK   28  A    between atoms: _67  and  _68
REMARK   29  A    between atoms: _77  and  _79
REMARK   30  A    between atoms: _79  and  _80
REMARK   31  A    between atoms: _79  and  _82
REMARK   32  A    between atoms: _82  and  _83
REMARK   33  A    between atoms: _88  and  _90
REMARK   34  A    between atoms: _90  and  _91
REMARK   35  A    between atoms: _90  and  _93
REMARK   36  A    between atoms: _93  and  _94
REMARK   37  A    between atoms: _94  and  _95
REMARK   38  A    between atoms: _97  and  _99
REMARK   39  A    between atoms: _99  and  _100
REMARK   40  A    between atoms: _99  and  _102
REMARK   41  A    between atoms: _102  and  _103
REMARK   42  A    between atoms: _109  and  _111
REMARK   43  A    between atoms: _111  and  _112
REMARK   44  A    between atoms: _111  and  _114
REMARK   45  A    between atoms: _114  and  _115
REMARK   46  A    between atoms: _120  and  _121
REMARK   47  A    between atoms: _123  and  _125
REMARK   48  A    between atoms: _125  and  _126
REMARK   49  A    between atoms: _125  and  _128
REMARK   50  A    between atoms: _130  and  _132
REMARK   51  A    between atoms: _132  and  _133
REMARK   52  A    between atoms: _132  and  _135
REMARK   53  A    between atoms: _135  and  _136
REMARK   54  A    between atoms: _139  and  _141
REMARK   55  A    between atoms: _141  and  _142
REMARK   56  A    between atoms: _141  and  _144
REMARK   57  A    between atoms: _144  and  _145
REMARK   58  A    between atoms: _145  and  _146
REMARK   59  A    between atoms: _146  and  _147
REMARK   60  A    between atoms: _156  and  _158
REMARK   61  A    between atoms: _158  and  _159
REMARK   62  A    between atoms: _158  and  _161
REMARK   63  A    between atoms: _161  and  _162
REMARK   64  A    between atoms: _165  and  _167
REMARK   65  A    between atoms: _167  and  _168
REMARK   66  A    between atoms: _167  and  _170
REMARK   67  A    between atoms: _170  and  _171
REMARK   68  A    between atoms: _171  and  _172
REMARK   69  A    between atoms: _175  and  _177
REMARK   70  A    between atoms: _177  and  _178
REMARK   71  A    between atoms: _177  and  _180
REMARK   72  A    between atoms: _183  and  _185
REMARK   73  A    between atoms: _185  and  _186
REMARK   74  A    between atoms: _189  and  _191
REMARK   75  A    between atoms: _191  and  _192
REMARK   76  A    between atoms: _191  and  _194
REMARK   77  A    between atoms: _194  and  _195
REMARK   78  A    between atoms: _200  and  _201
REMARK   79  A    between atoms: _203  and  _205
REMARK   80  A    between atoms: _205  and  _206
REMARK   81  A    between atoms: _205  and  _208
REMARK   82  A    between atoms: _208  and  _209
REMARK   83  A    between atoms: _212  and  _214
REMARK   84  A    between atoms: _214  and  _215
REMARK   85  A    between atoms: _214  and  _217
REMARK   86  A    between atoms: _217  and  _218
REMARK   87  A    between atoms: _220  and  _222
REMARK   88  A    between atoms: _222  and  _223
REMARK   89  A    between atoms: _226  and  _228
REMARK   90  A    between atoms: _228  and  _229
REMARK   91  A    between atoms: _228  and  _231
REMARK   92  A    between atoms: _231  and  _232
REMARK   93  A    between atoms: _237  and  _238
REMARK   94  A    between atoms: _240  and  _242
REMARK   95  A    between atoms: _242  and  _243
REMARK   96  A    between atoms: _242  and  _245
REMARK   97  A    between atoms: _245  and  _246
REMARK   98  A    between atoms: _251  and  _252
REMARK   99  A    between atoms: _254  and  _256
REMARK  100  A    between atoms: _256  and  _257
REMARK  101  A    between atoms: _256  and  _259
REMARK  102  A    between atoms: _259  and  _260
REMARK  103  A    between atoms: _263  and  _265
REMARK  104  A    between atoms: _265  and  _266
REMARK  105  A    between atoms: _269  and  _271
REMARK  106  A    between atoms: _271  and  _272
REMARK  107  A    between atoms: _271  and  _274
REMARK  108  A    between atoms: _277  and  _279
REMARK  109  A    between atoms: _279  and  _280
REMARK  110  A    between atoms: _279  and  _282
REMARK  111  A    between atoms: _282  and  _283
REMARK  112  A    between atoms: _285  and  _287
REMARK  113  A    between atoms: _287  and  _288
REMARK  114  A    between atoms: _287  and  _290
REMARK  115  A    between atoms: _290  and  _291
REMARK  116  A    between atoms: _291  and  _292
REMARK  117  A    between atoms: _292  and  _293
REMARK  118  A    between atoms: _293  and  _294
REMARK  119  A    between atoms: _298  and  _300
REMARK  120  A    between atoms: _300  and  _301
REMARK  121  A    between atoms: _300  and  _303
REMARK  122  A    between atoms: _303  and  _304
REMARK  123  A    between atoms: _306  and  _308
REMARK  124  A    between atoms: _308  and  _309
REMARK  125  A    between atoms: _308  and  _311
REMARK  126  A    between atoms: _311  and  _312
REMARK  127  A    between atoms: _315  and  _317
REMARK  128  A    between atoms: _317  and  _318
REMARK  129  A    between atoms: _317  and  _320
REMARK  130  A    between atoms: _320  and  _321
REMARK  131  A    between atoms: _326  and  _328
REMARK  132  A    between atoms: _328  and  _329
REMARK  133  A    between atoms: _328  and  _331
REMARK  134  A    between atoms: _331  and  _332
REMARK  135  A    between atoms: _335  and  _337
REMARK  136  A    between atoms: _337  and  _338
REMARK  137  A    between atoms: _337  and  _340
REMARK  138  A    between atoms: _340  and  _341
REMARK  139  A    between atoms: _344  and  _346
REMARK  140  A    between atoms: _346  and  _347
REMARK  141  A    between atoms: _346  and  _349
REMARK  142  A    between atoms: _349  and  _350
REMARK  143  A    between atoms: _353  and  _355
REMARK  144  A    between atoms: _355  and  _356
REMARK  145  A    between atoms: _355  and  _358
REMARK  146  A    between atoms: _358  and  _359
REMARK  147  A    between atoms: _359  and  _360
REMARK  148  A    between atoms: _365  and  _367
REMARK  149  A    between atoms: _367  and  _368
REMARK  150  A    between atoms: _371  and  _373
REMARK  151  A    between atoms: _373  and  _374
REMARK  152  A    between atoms: _373  and  _376
REMARK  153  A    between atoms: _379  and  _381
REMARK  154  A    between atoms: _381  and  _382
REMARK  155  A    between atoms: _381  and  _384
REMARK  156  A    between atoms: _384  and  _385
REMARK  157  A    between atoms: _388  and  _390
REMARK  158  A    between atoms: _390  and  _391
REMARK  159  A    between atoms: _393  and  _395
REMARK  160  A    between atoms: _395  and  _396
REMARK  161  A    between atoms: _395  and  _398
REMARK  162  A    between atoms: _398  and  _399
REMARK  163  A    between atoms: _404  and  _405
REMARK  164  A    between atoms: _407  and  _409
REMARK  165  A    between atoms: _409  and  _410
REMARK  166  A    between atoms: _409  and  _412
REMARK  167  A    between atoms: _412  and  _413
REMARK  168  A    between atoms: _413  and  _414
REMARK  169  A    between atoms: _414  and  _415
REMARK  170  A    between atoms: _424  and  _426
REMARK  171  A    between atoms: _426  and  _427
REMARK  172  A    between atoms: _426  and  _429
REMARK  173  A    between atoms: _429  and  _430
REMARK  174  A    between atoms: _436  and  _438
REMARK  175  A    between atoms: _438  and  _439
REMARK  176  A    between atoms: _438  and  _441
REMARK  177  A    between atoms: _441  and  _442
REMARK  178  A    between atoms: _445  and  _447
REMARK  179  A    between atoms: _447  and  _448
REMARK  180  A    between atoms: _447  and  _450
REMARK  181  A    between atoms: _450  and  _451
REMARK  182  A    between atoms: _454  and  _456
REMARK  183  A    between atoms: _456  and  _457
REMARK  184  A    between atoms: _456  and  _459
REMARK  185  A    between atoms: _459  and  _460
REMARK  186  A    between atoms: _470  and  _472
REMARK  187  A    between atoms: _472  and  _473
REMARK  188  A    between atoms: _472  and  _475
REMARK  189  A    between atoms: _475  and  _476
REMARK  190  A    between atoms: _479  and  _481
REMARK  191  A    between atoms: _481  and  _482
REMARK  192  A    between atoms: _481  and  _484
REMARK  193  A    between atoms: _484  and  _485
REMARK  194  A    between atoms: _485  and  _486
REMARK  195  A    between atoms: _491  and  _493
REMARK  196  A    between atoms: _493  and  _494
REMARK  197  A    between atoms: _493  and  _496
REMARK  198  A    between atoms: _496  and  _497
REMARK  199  A    between atoms: _500  and  _502
REMARK  200  A    between atoms: _502  and  _503
REMARK  201  A    between atoms: _502  and  _505
REMARK  202  A    between atoms: _505  and  _506
REMARK  203  A    between atoms: _506  and  _507
REMARK  204  A    between atoms: _512  and  _514
REMARK  205  A    between atoms: _514  and  _515
REMARK  206  A    between atoms: _518  and  _520
REMARK  207  A    between atoms: _520  and  _521
REMARK  208  A    between atoms: _520  and  _523
REMARK  209  A    between atoms: _523  and  _524
REMARK  210  A    between atoms: _527  and  _529
REMARK  211  A    between atoms: _529  and  _530
REMARK  212  A    between atoms: _529  and  _532
REMARK  213  A    between atoms: _532  and  _533
REMARK  214  A    between atoms: _536  and  _538
REMARK  215  A    between atoms: _538  and  _539
REMARK  216  A    between atoms: _538  and  _541
REMARK  217  A    between atoms: _544  and  _546
REMARK  218  A    between atoms: _546  and  _547
REMARK  219  A    between atoms: _546  and  _549
REMARK  220  A    between atoms: _551  and  _553
REMARK  221  A    between atoms: _553  and  _554
REMARK  222  A    between atoms: _553  and  _556
REMARK  223  A    between atoms: _559  and  _561
REMARK  224  A    between atoms: _561  and  _562
REMARK  225  A    between atoms: _561  and  _564
REMARK  226  A    between atoms: _564  and  _565
REMARK  227  A    between atoms: _570  and  _572
REMARK  228  A    between atoms: _572  and  _573
REMARK  229  A    between atoms: _572  and  _575
REMARK  230  A    between atoms: _575  and  _576
REMARK  231  A    between atoms: _582  and  _584
REMARK  232  A    between atoms: _584  and  _585
REMARK  233  A    between atoms: _584  and  _587
REMARK  234  A    between atoms: _587  and  _588
REMARK  235  A    between atoms: _591  and  _593
REMARK  236  A    between atoms: _593  and  _594
REMARK  237  A    between atoms: _593  and  _596
REMARK  238  A    between atoms: _596  and  _597
REMARK  239  A    between atoms: _600  and  _602
REMARK  240  A    between atoms: _602  and  _603
REMARK  241  A    between atoms: _602  and  _605
REMARK  242  A    between atoms: _605  and  _606
REMARK                            x       y       z     vdW  Elec       q    Type
REMARK                         _______ _______ _______ _____ _____    ______ ____
ROOT
ATOM      1  C   SER A   5      13.072 -45.254  -8.728  0.00  0.00    +0.243 C 
ATOM      2  O   SER A   5      13.016 -45.289  -7.505  0.00  0.00    -0.273 OA
ATOM      3  N   ILE A   6      13.265 -46.343  -9.458  0.00  0.00    -0.297 N 
ATOM      4  H   ILE A   6      13.277 -46.265 -10.495  0.00  0.00    +0.150 HD
ENDROOT
BRANCH   1   5
ATOM      5  CA  SER A   5      12.908 -43.938  -9.477  0.00  0.00    +0.178 C 
BRANCH   5   8
ATOM      6  C   LYS A   4      15.174 -43.863 -10.352  0.00  0.00    +0.241 C 
ATOM      7  O   LYS A   4      15.651 -43.860  -9.221  0.00  0.00    -0.273 OA
ATOM      8  N   SER A   5      13.863 -43.857 -10.575  0.00  0.00    -0.295 N 
ATOM      9  H   SER A   5      13.512 -43.793 -11.552  0.00  0.00    +0.150 HD
BRANCH   6  10
ATOM     10  CA  LYS A   4      16.076 -43.860 -11.578  0.00  0.00    +0.149 C 
BRANCH  10  13
ATOM     11  C   SER A   3      15.393 -46.005 -12.396  0.00  0.00    +0.243 C 
ATOM     12  O   SER A   3      15.733 -46.537 -11.354  0.00  0.00    -0.273 OA
ATOM     13  N   LYS A   4      15.547 -44.708 -12.622  0.00  0.00    -0.297 N 
ATOM     14  H   LYS A   4      15.289 -44.303 -13.545  0.00  0.00    +0.150 HD
BRANCH  11  15
ATOM     15  CA  SER A   3      14.785 -46.856 -13.499  0.00  0.00    +0.178 C 
BRANCH  15  18
ATOM     16  C   VAL A   2      12.598 -45.832 -13.466  0.00  0.00    +0.241 C 
ATOM     17  O   VAL A   2      12.503 -46.074 -12.270  0.00  0.00    -0.273 OA
ATOM     18  N   SER A   3      13.658 -46.215 -14.168  0.00  0.00    -0.295 N 
ATOM     19  H   SER A   3      13.685 -46.058 -15.196  0.00  0.00    +0.150 HD
BRANCH  16  20
ATOM     20  CA  VAL A   2      11.507 -45.012 -14.155  0.00  0.00    +0.148 C 
BRANCH  20  23
ATOM     21  C   ALA A   1      12.821 -43.029 -14.521  0.00  0.00    +0.238 C 
ATOM     22  O   ALA A   1      12.992 -42.904 -13.306  0.00  0.00    -0.274 OA
ATOM     23  N   VAL A   2      12.104 -44.024 -15.038  0.00  0.00    -0.297 N 
ATOM     24  H   VAL A   2      11.972 -44.094 -16.067  0.00  0.00    +0.150 HD
BRANCH  21  25
ATOM     25  CA  ALA A   1      13.462 -42.048 -15.497  0.00  0.00    +0.145 C 
ATOM     26  CB  ALA A   1      12.454 -40.997 -15.922  0.00  0.00    +0.028 C 
BRANCH  25  27
ATOM     27  N   ALA A   1      13.990 -42.745 -16.661  0.00  0.00    -0.238 NA
ATOM     28  H   ALA A   1      13.590 -42.563 -17.603  0.00  0.00    +0.142 HD
ENDBRANCH  25  27
ENDBRANCH  21  25
ENDBRANCH  20  23
BRANCH  20  29
ATOM     29  CB  VAL A   2      10.453 -45.862 -14.877  0.00  0.00    +0.027 C 
ATOM     30  CG2 VAL A   2       9.974 -47.002 -13.988  0.00  0.00    +0.002 C 
ATOM     31  CG1 VAL A   2       9.282 -44.980 -15.319  0.00  0.00    +0.002 C 
ENDBRANCH  20  29
ENDBRANCH  16  20
ENDBRANCH  15  18
BRANCH  15  32
ATOM     32  CB  SER A   3      15.874 -47.241 -14.498  0.00  0.00    +0.166 C 
BRANCH  32  33
ATOM     33  OG  SER A   3      15.534 -48.432 -15.174  0.00  0.00    -0.380 OA
ATOM     34  H   SER A   3      15.429 -49.165 -14.517  0.00  0.00    +0.211 HD
ENDBRANCH  32  33
ENDBRANCH  15  32
ENDBRANCH  11  15
ENDBRANCH  10  13
BRANCH  10  35
ATOM     35  CB  LYS A   4      16.277 -42.449 -12.094  0.00  0.00    +0.029 C 
BRANCH  35  36
ATOM     36  CG  LYS A   4      17.499 -42.284 -12.937  0.00  0.00    +0.000 C 
BRANCH  36  37
ATOM     37  CD  LYS A   4      17.723 -40.806 -13.238  0.00  0.00    -0.024 C 
BRANCH  37  38
ATOM     38  CE  LYS A   4      19.171 -40.530 -13.421  0.00  0.00    -0.086 C 
BRANCH  38  39
ATOM     39  NZ  LYS A   4      19.610 -41.316 -14.579  0.00  0.00    +0.380 N 
ATOM     40  HZ1 LYS A   4      19.447 -42.326 -14.393  0.00  0.00    -0.089 HD
ATOM     41  HZ2 LYS A   4      20.624 -41.152 -14.744  0.00  0.00    -0.089 HD
ATOM     42  HZ3 LYS A   4      19.069 -41.025 -15.419  0.00  0.00    -0.089 HD
ENDBRANCH  38  39
ENDBRANCH  37  38
ENDBRANCH  36  37
ENDBRANCH  35  36
ENDBRANCH  10  35
ENDBRANCH   6  10
ENDBRANCH   5   8
BRANCH   5  43
ATOM     43  CB  SER A   5      11.476 -43.820  -9.999  0.00  0.00    +0.166 C 
BRANCH  43  44
ATOM     44  OG  SER A   5      11.243 -42.602 -10.690  0.00  0.00    -0.380 OA
ATOM     45  H   SER A   5      11.855 -42.542 -11.466  0.00  0.00    +0.211 HD
ENDBRANCH  43  44
ENDBRANCH   5  43
ENDBRANCH   1   5
BRANCH   3  46
ATOM     46  CA  ILE A   6      13.461 -47.652  -8.836  0.00  0.00    +0.149 C 
BRANCH  46  47
ATOM     47  C   ILE A   6      14.771 -47.676  -8.043  0.00  0.00    +0.241 C 
ATOM     48  O   ILE A   6      14.832 -48.256  -6.957  0.00  0.00    -0.273 OA
ATOM     49  N   HIS A   7      15.824 -47.046  -8.547  0.00  0.00    -0.297 N 
ATOM     50  H   HIS A   7      15.769 -46.616  -9.492  0.00  0.00    +0.150 HD
BRANCH  49  51
ATOM     51  CA  HIS A   7      17.052 -46.957  -7.780  0.00  0.00    +0.155 C 
BRANCH  51  52
ATOM     52  C   HIS A   7      16.798 -46.227  -6.454  0.00  0.00    +0.241 C 
ATOM     53  O   HIS A   7      17.274 -46.647  -5.405  0.00  0.00    -0.273 OA
ATOM     54  N   THR A   8      16.040 -45.138  -6.499  0.00  0.00    -0.295 N 
ATOM     55  H   THR A   8      15.684 -44.797  -7.415  0.00  0.00    +0.150 HD
BRANCH  54  56
ATOM     56  CA  THR A   8      15.703 -44.418  -5.286  0.00  0.00    +0.176 C 
BRANCH  56  57
ATOM     57  C   THR A   8      14.859 -45.272  -4.364  0.00  0.00    +0.243 C 
ATOM     58  O   THR A   8      15.093 -45.297  -3.157  0.00  0.00    -0.273 OA
ATOM     59  N   LEU A   9      13.900 -45.982  -4.929  0.00  0.00    -0.297 N 
ATOM     60  H   LEU A   9      13.724 -45.866  -5.947  0.00  0.00    +0.150 HD
BRANCH  59  61
ATOM     61  CA  LEU A   9      13.080 -46.922  -4.176  0.00  0.00    +0.149 C 
BRANCH  61  62
ATOM     62  C   LEU A   9      13.943 -47.902  -3.384  0.00  0.00    +0.241 C 
ATOM     63  O   LEU A   9      13.724 -48.147  -2.193  0.00  0.00    -0.273 OA
ATOM     64  N   LEU A  10      14.935 -48.494  -4.042  0.00  0.00    -0.298 N 
ATOM     65  H   LEU A  10      15.130 -48.230  -5.029  0.00  0.00    +0.150 HD
BRANCH  64  66
ATOM     66  CA  LEU A  10      15.751 -49.510  -3.390  0.00  0.00    +0.137 C 
BRANCH  66  67
ATOM     67  C   LEU A  10      16.710 -48.885  -2.384  0.00  0.00    +0.227 C 
ATOM     68  O   LEU A  10      17.070 -49.541  -1.421  0.00  0.00    -0.286 OA
ENDBRANCH  66  67
BRANCH  66  69
ATOM     69  CB  LEU A  10      16.491 -50.353  -4.428  0.00  0.00    +0.028 C 
BRANCH  69  70
ATOM     70  CG  LEU A  10      15.584 -51.197  -5.329  0.00  0.00    +0.002 C 
ATOM     71  CD2 LEU A  10      14.605 -52.091  -4.574  0.00  0.00    +0.000 C 
ATOM     72  CD1 LEU A  10      16.424 -52.016  -6.263  0.00  0.00    +0.000 C 
ENDBRANCH  69  70
ENDBRANCH  66  69
ENDBRANCH  64  66
ENDBRANCH  61  62
BRANCH  61  73
ATOM     73  CB  LEU A   9      12.169 -47.680  -5.142  0.00  0.00    +0.029 C 
BRANCH  73  74
ATOM     74  CG  LEU A   9      11.362 -48.825  -4.550  0.00  0.00    +0.002 C 
ATOM     75  CD2 LEU A   9      10.372 -48.315  -3.529  0.00  0.00    +0.000 C 
ATOM     76  CD1 LEU A   9      10.659 -49.569  -5.636  0.00  0.00    +0.000 C 
ENDBRANCH  73  74
ENDBRANCH  61  73
ENDBRANCH  59  61
ENDBRANCH  56  57
BRANCH  56  77
ATOM     77  CB  THR A   8      15.026 -43.092  -5.647  0.00  0.00    +0.137 C 
ATOM     78  CG2 THR A   8      14.469 -42.376  -4.426  0.00  0.00    +0.034 C 
BRANCH  77  79
ATOM     79  OG1 THR A   8      16.033 -42.287  -6.271  0.00  0.00    -0.382 OA
ATOM     80  HG1 THR A   8      16.780 -42.145  -5.637  0.00  0.00    +0.210 HD
ENDBRANCH  77  79
ENDBRANCH  56  77
ENDBRANCH  54  56
ENDBRANCH  51  52
BRANCH  51  81
ATOM     81  CB  HIS A   7      18.146 -46.218  -8.551  0.00  0.00    +0.076 C 
BRANCH  81  82
ATOM     82  CG  HIS A   7      18.586 -46.856  -9.824  0.00  0.00    +0.082 A 
ATOM     83  ND1 HIS A   7      18.334 -48.160 -10.167  0.00  0.00    -0.227 NA
ATOM     84  CE1 HIS A   7      18.871 -48.408 -11.355  0.00  0.00    +0.199 A 
ATOM     85  NE2 HIS A   7      19.440 -47.302 -11.797  0.00  0.00    -0.221 NA
ATOM     86  CD2 HIS A   7      19.282 -46.322 -10.854  0.00  0.00    +0.115 A 
ENDBRANCH  81  82
ENDBRANCH  51  81
ENDBRANCH  49  51
ENDBRANCH  46  47
BRANCH  46  87
ATOM     87  CB  ILE A   6      13.371 -48.770  -9.885  0.00  0.00    +0.027 C 
ATOM     88  CG2 ILE A   6      13.858 -50.104  -9.314  0.00  0.00    +0.002 C 
BRANCH  87  89
ATOM     89  CG1 ILE A   6      11.927 -48.850 -10.401  0.00  0.00    +0.002 C 
ATOM     90  CD1 ILE A   6      11.755 -49.642 -11.651  0.00  0.00    +0.000 C 
ENDBRANCH  87  89
ENDBRANCH  46  87
ENDBRANCH   3  46
TORSDOF 40
REMARK  Name = ../refined-set-2016/4wn5/4wn5_pocket.pdb
REMARK  242 active torsions:
REMARK  status: ('A' for Active; 'I' for Inactive)
REMARK    1  A    between atoms: _1  and  _5
REMARK    2  A    between atoms: _5  and  _6
REMARK    3  A    between atoms: _5  and  _8
REMARK    4  A    between atoms: _8  and  _9
REMARK    5  A    between atoms: _9  and  _10
REMARK    6  A    between atoms: _10  and  _11
REMARK    7  A    between atoms: _20  and  _22
REMARK    8  A    between atoms: _22  and  _23
REMARK    9  A    between atoms: _25  and  _27
REMARK   10  A    between atoms: _27  and  _28
REMARK   11  A    between atoms: _31  and  _33
REMARK   12  A    between atoms: _33  and  _34
REMARK   13  A    between atoms: _33  and  _36
REMARK   14  A    between atoms: _36  and  _37
REMARK   15  A    between atoms: _43  and  _45
REMARK   16  A    between atoms: _45  and  _46
REMARK   17  A    between atoms: _45  and  _48
REMARK   18  A    between atoms: _48  and  _49
REMARK   19  A    between atoms: _52  and  _54
REMARK   20  A    between atoms: _54  and  _55
REMARK   21  A    between atoms: _54  and  _57
REMARK   22  A    between atoms: _57  and  _58
REMARK   23  A    between atoms: _60  and  _62
REMARK   24  A    between atoms: _62  and  _63
REMARK   25  A    between atoms: _62  and  _65
REMARK   26  A    between atoms: _65  and  _66
REMARK   27  A    between atoms: _66  and  _67
REMARK   28  A    between atoms: _67  and  _68
REMARK   29  A    between atoms: _77  and  _79
REMARK   30  A    between atoms: _79  and  _80
REMARK   31  A    between atoms: _79  and  _82
REMARK   32  A    between atoms: _82  and  _83
REMARK   33  A    between atoms: _88  and  _90
REMARK   34  A    between atoms: _90  and  _91
REMARK   35  A    between atoms: _90  and  _93
REMARK   36  A    between atoms: _93  and  _94
REMARK   37  A    between atoms: _94  and  _95
REMARK   38  A    between atoms: _97  and  _99
REMARK   39  A    between atoms: _99  and  _100
REMARK   40  A    between atoms: _99  and  _102
REMARK   41  A    between atoms: _102  and  _103
REMARK   42  A    between atoms: _109  and  _111
REMARK   43  A    between atoms: _111  and  _112
REMARK   44  A    between atoms: _111  and  _114
REMARK   45  A    between atoms: _114  and  _115
REMARK   46  A    between atoms: _120  and  _121
REMARK   47  A    between atoms: _123  and  _125
REMARK   48  A    between atoms: _125  and  _126
REMARK   49  A    between atoms: _125  and  _128
REMARK   50  A    between atoms: _130  and  _132
REMARK   51  A    between atoms: _132  and  _133
REMARK   52  A    between atoms: _132  and  _135
REMARK   53  A    between atoms: _135  and  _136
REMARK   54  A    between atoms: _139  and  _141
REMARK   55  A    between atoms: _141  and  _142
REMARK   56  A    between atoms: _141  and  _144
REMARK   57  A    between atoms: _144  and  _145
REMARK   58  A    between atoms: _145  and  _146
REMARK   59  A    between atoms: _146  and  _147
REMARK   60  A    between atoms: _156  and  _158
REMARK   61  A    between atoms: _158  and  _159
REMARK   62  A    between atoms: _158  and  _161
REMARK   63  A    between atoms: _161  and  _162
REMARK   64  A    between atoms: _165  and  _167
REMARK   65  A    between atoms: _167  and  _168
REMARK   66  A    between atoms: _167  and  _170
REMARK   67  A    between atoms: _170  and  _171
REMARK   68  A    between atoms: _171  and  _172
REMARK   69  A    between atoms: _175  and  _177
REMARK   70  A    between atoms: _177  and  _178
REMARK   71  A    between atoms: _177  and  _180
REMARK   72  A    between atoms: _183  and  _185
REMARK   73  A    between atoms: _185  and  _186
REMARK   74  A    between atoms: _189  and  _191
REMARK   75  A    between atoms: _191  and  _192
REMARK   76  A    between atoms: _191  and  _194
REMARK   77  A    between atoms: _194  and  _195
REMARK   78  A    between atoms: _200  and  _201
REMARK   79  A    between atoms: _203  and  _205
REMARK   80  A    between atoms: _205  and  _206
REMARK   81  A    between atoms: _205  and  _208
REMARK   82  A    between atoms: _208  and  _209
REMARK   83  A    between atoms: _212  and  _214
REMARK   84  A    between atoms: _214  and  _215
REMARK   85  A    between atoms: _214  and  _217
REMARK   86  A    between atoms: _217  and  _218
REMARK   87  A    between atoms: _220  and  _222
REMARK   88  A    between atoms: _222  and  _223
REMARK   89  A    between atoms: _226  and  _228
REMARK   90  A    between atoms: _228  and  _229
REMARK   91  A    between atoms: _228  and  _231
REMARK   92  A    between atoms: _231  and  _232
REMARK   93  A    between atoms: _237  and  _238
REMARK   94  A    between atoms: _240  and  _242
REMARK   95  A    between atoms: _242  and  _243
REMARK   96  A    between atoms: _242  and  _245
REMARK   97  A    between atoms: _245  and  _246
REMARK   98  A    between atoms: _251  and  _252
REMARK   99  A    between atoms: _254  and  _256
REMARK  100  A    between atoms: _256  and  _257
REMARK  101  A    between atoms: _256  and  _259
REMARK  102  A    between atoms: _259  and  _260
REMARK  103  A    between atoms: _263  and  _265
REMARK  104  A    between atoms: _265  and  _266
REMARK  105  A    between atoms: _269  and  _271
REMARK  106  A    between atoms: _271  and  _272
REMARK  107  A    between atoms: _271  and  _274
REMARK  108  A    between atoms: _277  and  _279
REMARK  109  A    between atoms: _279  and  _280
REMARK  110  A    between atoms: _279  and  _282
REMARK  111  A    between atoms: _282  and  _283
REMARK  112  A    between atoms: _285  and  _287
REMARK  113  A    between atoms: _287  and  _288
REMARK  114  A    between atoms: _287  and  _290
REMARK  115  A    between atoms: _290  and  _291
REMARK  116  A    between atoms: _291  and  _292
REMARK  117  A    between atoms: _292  and  _293
REMARK  118  A    between atoms: _293  and  _294
REMARK  119  A    between atoms: _298  and  _300
REMARK  120  A    between atoms: _300  and  _301
REMARK  121  A    between atoms: _300  and  _303
REMARK  122  A    between atoms: _303  and  _304
REMARK  123  A    between atoms: _306  and  _308
REMARK  124  A    between atoms: _308  and  _309
REMARK  125  A    between atoms: _308  and  _311
REMARK  126  A    between atoms: _311  and  _312
REMARK  127  A    between atoms: _315  and  _317
REMARK  128  A    between atoms: _317  and  _318
REMARK  129  A    between atoms: _317  and  _320
REMARK  130  A    between atoms: _320  and  _321
REMARK  131  A    between atoms: _326  and  _328
REMARK  132  A    between atoms: _328  and  _329
REMARK  133  A    between atoms: _328  and  _331
REMARK  134  A    between atoms: _331  and  _332
REMARK  135  A    between atoms: _335  and  _337
REMARK  136  A    between atoms: _337  and  _338
REMARK  137  A    between atoms: _337  and  _340
REMARK  138  A    between atoms: _340  and  _341
REMARK  139  A    between atoms: _344  and  _346
REMARK  140  A    between atoms: _346  and  _347
REMARK  141  A    between atoms: _346  and  _349
REMARK  142  A    between atoms: _349  and  _350
REMARK  143  A    between atoms: _353  and  _355
REMARK  144  A    between atoms: _355  and  _356
REMARK  145  A    between atoms: _355  and  _358
REMARK  146  A    between atoms: _358  and  _359
REMARK  147  A    between atoms: _359  and  _360
REMARK  148  A    between atoms: _365  and  _367
REMARK  149  A    between atoms: _367  and  _368
REMARK  150  A    between atoms: _371  and  _373
REMARK  151  A    between atoms: _373  and  _374
REMARK  152  A    between atoms: _373  and  _376
REMARK  153  A    between atoms: _379  and  _381
REMARK  154  A    between atoms: _381  and  _382
REMARK  155  A    between atoms: _381  and  _384
REMARK  156  A    between atoms: _384  and  _385
REMARK  157  A    between atoms: _388  and  _390
REMARK  158  A    between atoms: _390  and  _391
REMARK  159  A    between atoms: _393  and  _395
REMARK  160  A    between atoms: _395  and  _396
REMARK  161  A    between atoms: _395  and  _398
REMARK  162  A    between atoms: _398  and  _399
REMARK  163  A    between atoms: _404  and  _405
REMARK  164  A    between atoms: _407  and  _409
REMARK  165  A    between atoms: _409  and  _410
REMARK  166  A    between atoms: _409  and  _412
REMARK  167  A    between atoms: _412  and  _413
REMARK  168  A    between atoms: _413  and  _414
REMARK  169  A    between atoms: _414  and  _415
REMARK  170  A    between atoms: _424  and  _426
REMARK  171  A    between atoms: _426  and  _427
REMARK  172  A    between atoms: _426  and  _429
REMARK  173  A    between atoms: _429  and  _430
REMARK  174  A    between atoms: _436  and  _438
REMARK  175  A    between atoms: _438  and  _439
REMARK  176  A    between atoms: _438  and  _441
REMARK  177  A    between atoms: _441  and  _442
REMARK  178  A    between atoms: _445  and  _447
REMARK  179  A    between atoms: _447  and  _448
REMARK  180  A    between atoms: _447  and  _450
REMARK  181  A    between atoms: _450  and  _451
REMARK  182  A    between atoms: _454  and  _456
REMARK  183  A    between atoms: _456  and  _457
REMARK  184  A    between atoms: _456  and  _459
REMARK  185  A    between atoms: _459  and  _460
REMARK  186  A    between atoms: _470  and  _472
REMARK  187  A    between atoms: _472  and  _473
REMARK  188  A    between atoms: _472  and  _475
REMARK  189  A    between atoms: _475  and  _476
REMARK  190  A    between atoms: _479  and  _481
REMARK  191  A    between atoms: _481  and  _482
REMARK  192  A    between atoms: _481  and  _484
REMARK  193  A    between atoms: _484  and  _485
REMARK  194  A    between atoms: _485  and  _486
REMARK  195  A    between atoms: _491  and  _493
REMARK  196  A    between atoms: _493  and  _494
REMARK  197  A    between atoms: _493  and  _496
REMARK  198  A    between atoms: _496  and  _497
REMARK  199  A    between atoms: _500  and  _502
REMARK  200  A    between atoms: _502  and  _503
REMARK  201  A    between atoms: _502  and  _505
REMARK  202  A    between atoms: _505  and  _506
REMARK  203  A    between atoms: _506  and  _507
REMARK  204  A    between atoms: _512  and  _514
REMARK  205  A    between atoms: _514  and  _515
REMARK  206  A    between atoms: _518  and  _520
REMARK  207  A    between atoms: _520  and  _521
REMARK  208  A    between atoms: _520  and  _523
REMARK  209  A    between atoms: _523  and  _524
REMARK  210  A    between atoms: _527  and  _529
REMARK  211  A    between atoms: _529  and  _530
REMARK  212  A    between atoms: _529  and  _532
REMARK  213  A    between atoms: _532  and  _533
REMARK  214  A    between atoms: _536  and  _538
REMARK  215  A    between atoms: _538  and  _539
REMARK  216  A    between atoms: _538  and  _541
REMARK  217  A    between atoms: _544  and  _546
REMARK  218  A    between atoms: _546  and  _547
REMARK  219  A    between atoms: _546  and  _549
REMARK  220  A    between atoms: _551  and  _553
REMARK  221  A    between atoms: _553  and  _554
REMARK  222  A    between atoms: _553  and  _556
REMARK  223  A    between atoms: _559  and  _561
REMARK  224  A    between atoms: _561  and  _562
REMARK  225  A    between atoms: _561  and  _564
REMARK  226  A    between atoms: _564  and  _565
REMARK  227  A    between atoms: _570  and  _572
REMARK  228  A    between atoms: _572  and  _573
REMARK  229  A    between atoms: _572  and  _575
REMARK  230  A    between atoms: _575  and  _576
REMARK  231  A    between atoms: _582  and  _584
REMARK  232  A    between atoms: _584  and  _585
REMARK  233  A    between atoms: _584  and  _587
REMARK  234  A    between atoms: _587  and  _588
REMARK  235  A    between atoms: _591  and  _593
REMARK  236  A    between atoms: _593  and  _594
REMARK  237  A    between atoms: _593  and  _596
REMARK  238  A    between atoms: _596  and  _597
REMARK  239  A    between atoms: _600  and  _602
REMARK  240  A    between atoms: _602  and  _603
REMARK  241  A    between atoms: _602  and  _605
REMARK  242  A    between atoms: _605  and  _606
REMARK                            x       y       z     vdW  Elec       q    Type
REMARK                         _______ _______ _______ _____ _____    ______ ____
ROOT
ATOM      1  C   ALA A   2       8.468 -43.205  -4.900  0.00  0.00    +0.241 C 
ATOM      2  O   ALA A   2       7.521 -43.987  -4.812  0.00  0.00    -0.273 OA
ATOM      3  N   VAL A   3       8.452 -42.092  -5.612  0.00  0.00    -0.297 N 
ATOM      4  H   VAL A   3       9.275 -41.460  -5.549  0.00  0.00    +0.150 HD
ENDROOT
BRANCH   1   5
ATOM      5  CA  ALA A   2       9.781 -43.482  -4.217  0.00  0.00    +0.149 C 
ATOM      6  CB  ALA A   2      10.767 -44.038  -5.225  0.00  0.00    +0.031 C 
BRANCH   5   9
ATOM      7  C   GLN A   1      10.427 -44.530  -2.111  0.00  0.00    +0.238 C 
ATOM      8  O   GLN A   1      11.479 -43.882  -2.053  0.00  0.00    -0.274 OA
ATOM      9  N   ALA A   2       9.569 -44.426  -3.125  0.00  0.00    -0.297 N 
ATOM     10  H   ALA A   2       8.725 -45.034  -3.138  0.00  0.00    +0.150 HD
BRANCH   7  11
ATOM     11  CA  GLN A   1      10.062 -45.502  -1.001  0.00  0.00    +0.145 C 
BRANCH  11  12
ATOM     12  N   GLN A   1      11.313 -46.016  -0.454  0.00  0.00    -0.238 NA
ATOM     13  H   GLN A   1      12.146 -45.394  -0.455  0.00  0.00    +0.142 HD
ENDBRANCH  11  12
BRANCH  11  14
ATOM     14  CB  GLN A   1       9.253 -44.776   0.069  0.00  0.00    +0.036 C 
BRANCH  14  15
ATOM     15  CG  GLN A   1       8.845 -45.652   1.224  0.00  0.00    +0.087 C 
BRANCH  15  16
ATOM     16  CD  GLN A   1       7.895 -44.977   2.201  0.00  0.00    +0.219 C 
ATOM     17  OE1 GLN A   1       8.234 -44.730   3.378  0.00  0.00    -0.275 OA
ATOM     18  NE2 GLN A   1       6.695 -44.739   1.754  0.00  0.00    -0.329 N 
ATOM     19 HE21 GLN A   1       5.977 -44.328   2.385  0.00  0.00    +0.145 HD
ATOM     20 HE22 GLN A   1       6.455 -44.960   0.767  0.00  0.00    +0.145 HD
ENDBRANCH  15  16
ENDBRANCH  14  15
ENDBRANCH  11  14
ENDBRANCH   7  11
ENDBRANCH   5   9
ENDBRANCH   1   5
BRANCH   3  21
ATOM     21  CA  VAL A   3       7.356 -41.699  -6.476  0.00  0.00    +0.149 C 
BRANCH  21  22
ATOM     22  C   VAL A   3       7.936 -41.419  -7.861  0.00  0.00    +0.241 C 
ATOM     23  O   VAL A   3       8.915 -40.684  -7.980  0.00  0.00    -0.273 OA
ATOM     24  N   THR A   4       7.366 -42.021  -8.896  0.00  0.00    -0.295 N 
ATOM     25  H   THR A   4       6.595 -42.700  -8.731  0.00  0.00    +0.150 HD
BRANCH  24  26
ATOM     26  CA  THR A   4       7.800 -41.749 -10.259  0.00  0.00    +0.176 C 
BRANCH  26  27
ATOM     27  C   THR A   4       7.312 -40.378 -10.689  0.00  0.00    +0.243 C 
ATOM     28  O   THR A   4       6.403 -39.804 -10.100  0.00  0.00    -0.273 OA
ATOM     29  N   GLY A   5       7.902 -39.858 -11.756  0.00  0.00    -0.296 N 
ATOM     30  H   GLY A   5       8.857 -40.168 -12.026  0.00  0.00    +0.150 HD
BRANCH  29  31
ATOM     31  CA  GLY A   5       7.211 -38.855 -12.547  0.00  0.00    +0.163 C 
BRANCH  31  32
ATOM     32  C   GLY A   5       6.113 -39.491 -13.367  0.00  0.00    +0.229 C 
ATOM     33  O   GLY A   5       5.914 -40.700 -13.324  0.00  0.00    -0.286 OA
ENDBRANCH  31  32
ENDBRANCH  29  31
ENDBRANCH  26  27
BRANCH  26  34
ATOM     34  CB  THR A   4       7.263 -42.778 -11.257  0.00  0.00    +0.137 C 
ATOM     35  CG2 THR A   4       7.557 -44.193 -10.836  0.00  0.00    +0.034 C 
BRANCH  34  36
ATOM     36  OG1 THR A   4       5.853 -42.618 -11.406  0.00  0.00    -0.382 OA
ATOM     37  HG1 THR A   4       5.659 -41.706 -11.739  0.00  0.00    +0.210 HD
ENDBRANCH  34  36
ENDBRANCH  26  34
ENDBRANCH  24  26
ENDBRANCH  21  22
BRANCH  21  38
ATOM     38  CB  VAL A   3       6.627 -40.456  -5.942  0.00  0.00    +0.027 C 
ATOM     39  CG2 VAL A   3       6.059 -40.722  -4.554  0.00  0.00    +0.002 C 
ATOM     40  CG1 VAL A   3       5.524 -40.011  -6.866  0.00  0.00    +0.002 C 
ENDBRANCH  21  38
ENDBRANCH   3  21
TORSDOF 16
REMARK  Name = ../refined-set-2016/4wn5/4wn5_pocket.pdb
REMARK  242 active torsions:
REMARK  status: ('A' for Active; 'I' for Inactive)
REMARK    1  A    between atoms: _1  and  _5
REMARK    2  A    between atoms: _5  and  _6
REMARK    3  A    between atoms: _5  and  _8
REMARK    4  A    between atoms: _8  and  _9
REMARK    5  A    between atoms: _9  and  _10
REMARK    6  A    between atoms: _10  and  _11
REMARK    7  A    between atoms: _20  and  _22
REMARK    8  A    between atoms: _22  and  _23
REMARK    9  A    between atoms: _25  and  _27
REMARK   10  A    between atoms: _27  and  _28
REMARK   11  A    between atoms: _31  and  _33
REMARK   12  A    between atoms: _33  and  _34
REMARK   13  A    between atoms: _33  and  _36
REMARK   14  A    between atoms: _36  and  _37
REMARK   15  A    between atoms: _43  and  _45
REMARK   16  A    between atoms: _45  and  _46
REMARK   17  A    between atoms: _45  and  _48
REMARK   18  A    between atoms: _48  and  _49
REMARK   19  A    between atoms: _52  and  _54
REMARK   20  A    between atoms: _54  and  _55
REMARK   21  A    between atoms: _54  and  _57
REMARK   22  A    between atoms: _57  and  _58
REMARK   23  A    between atoms: _60  and  _62
REMARK   24  A    between atoms: _62  and  _63
REMARK   25  A    between atoms: _62  and  _65
REMARK   26  A    between atoms: _65  and  _66
REMARK   27  A    between atoms: _66  and  _67
REMARK   28  A    between atoms: _67  and  _68
REMARK   29  A    between atoms: _77  and  _79
REMARK   30  A    between atoms: _79  and  _80
REMARK   31  A    between atoms: _79  and  _82
REMARK   32  A    between atoms: _82  and  _83
REMARK   33  A    between atoms: _88  and  _90
REMARK   34  A    between atoms: _90  and  _91
REMARK   35  A    between atoms: _90  and  _93
REMARK   36  A    between atoms: _93  and  _94
REMARK   37  A    between atoms: _94  and  _95
REMARK   38  A    between atoms: _97  and  _99
REMARK   39  A    between atoms: _99  and  _100
REMARK   40  A    between atoms: _99  and  _102
REMARK   41  A    between atoms: _102  and  _103
REMARK   42  A    between atoms: _109  and  _111
REMARK   43  A    between atoms: _111  and  _112
REMARK   44  A    between atoms: _111  and  _114
REMARK   45  A    between atoms: _114  and  _115
REMARK   46  A    between atoms: _120  and  _121
REMARK   47  A    between atoms: _123  and  _125
REMARK   48  A    between atoms: _125  and  _126
REMARK   49  A    between atoms: _125  and  _128
REMARK   50  A    between atoms: _130  and  _132
REMARK   51  A    between atoms: _132  and  _133
REMARK   52  A    between atoms: _132  and  _135
REMARK   53  A    between atoms: _135  and  _136
REMARK   54  A    between atoms: _139  and  _141
REMARK   55  A    between atoms: _141  and  _142
REMARK   56  A    between atoms: _141  and  _144
REMARK   57  A    between atoms: _144  and  _145
REMARK   58  A    between atoms: _145  and  _146
REMARK   59  A    between atoms: _146  and  _147
REMARK   60  A    between atoms: _156  and  _158
REMARK   61  A    between atoms: _158  and  _159
REMARK   62  A    between atoms: _158  and  _161
REMARK   63  A    between atoms: _161  and  _162
REMARK   64  A    between atoms: _165  and  _167
REMARK   65  A    between atoms: _167  and  _168
REMARK   66  A    between atoms: _167  and  _170
REMARK   67  A    between atoms: _170  and  _171
REMARK   68  A    between atoms: _171  and  _172
REMARK   69  A    between atoms: _175  and  _177
REMARK   70  A    between atoms: _177  and  _178
REMARK   71  A    between atoms: _177  and  _180
REMARK   72  A    between atoms: _183  and  _185
REMARK   73  A    between atoms: _185  and  _186
REMARK   74  A    between atoms: _189  and  _191
REMARK   75  A    between atoms: _191  and  _192
REMARK   76  A    between atoms: _191  and  _194
REMARK   77  A    between atoms: _194  and  _195
REMARK   78  A    between atoms: _200  and  _201
REMARK   79  A    between atoms: _203  and  _205
REMARK   80  A    between atoms: _205  and  _206
REMARK   81  A    between atoms: _205  and  _208
REMARK   82  A    between atoms: _208  and  _209
REMARK   83  A    between atoms: _212  and  _214
REMARK   84  A    between atoms: _214  and  _215
REMARK   85  A    between atoms: _214  and  _217
REMARK   86  A    between atoms: _217  and  _218
REMARK   87  A    between atoms: _220  and  _222
REMARK   88  A    between atoms: _222  and  _223
REMARK   89  A    between atoms: _226  and  _228
REMARK   90  A    between atoms: _228  and  _229
REMARK   91  A    between atoms: _228  and  _231
REMARK   92  A    between atoms: _231  and  _232
REMARK   93  A    between atoms: _237  and  _238
REMARK   94  A    between atoms: _240  and  _242
REMARK   95  A    between atoms: _242  and  _243
REMARK   96  A    between atoms: _242  and  _245
REMARK   97  A    between atoms: _245  and  _246
REMARK   98  A    between atoms: _251  and  _252
REMARK   99  A    between atoms: _254  and  _256
REMARK  100  A    between atoms: _256  and  _257
REMARK  101  A    between atoms: _256  and  _259
REMARK  102  A    between atoms: _259  and  _260
REMARK  103  A    between atoms: _263  and  _265
REMARK  104  A    between atoms: _265  and  _266
REMARK  105  A    between atoms: _269  and  _271
REMARK  106  A    between atoms: _271  and  _272
REMARK  107  A    between atoms: _271  and  _274
REMARK  108  A    between atoms: _277  and  _279
REMARK  109  A    between atoms: _279  and  _280
REMARK  110  A    between atoms: _279  and  _282
REMARK  111  A    between atoms: _282  and  _283
REMARK  112  A    between atoms: _285  and  _287
REMARK  113  A    between atoms: _287  and  _288
REMARK  114  A    between atoms: _287  and  _290
REMARK  115  A    between atoms: _290  and  _291
REMARK  116  A    between atoms: _291  and  _292
REMARK  117  A    between atoms: _292  and  _293
REMARK  118  A    between atoms: _293  and  _294
REMARK  119  A    between atoms: _298  and  _300
REMARK  120  A    between atoms: _300  and  _301
REMARK  121  A    between atoms: _300  and  _303
REMARK  122  A    between atoms: _303  and  _304
REMARK  123  A    between atoms: _306  and  _308
REMARK  124  A    between atoms: _308  and  _309
REMARK  125  A    between atoms: _308  and  _311
REMARK  126  A    between atoms: _311  and  _312
REMARK  127  A    between atoms: _315  and  _317
REMARK  128  A    between atoms: _317  and  _318
REMARK  129  A    between atoms: _317  and  _320
REMARK  130  A    between atoms: _320  and  _321
REMARK  131  A    between atoms: _326  and  _328
REMARK  132  A    between atoms: _328  and  _329
REMARK  133  A    between atoms: _328  and  _331
REMARK  134  A    between atoms: _331  and  _332
REMARK  135  A    between atoms: _335  and  _337
REMARK  136  A    between atoms: _337  and  _338
REMARK  137  A    between atoms: _337  and  _340
REMARK  138  A    between atoms: _340  and  _341
REMARK  139  A    between atoms: _344  and  _346
REMARK  140  A    between atoms: _346  and  _347
REMARK  141  A    between atoms: _346  and  _349
REMARK  142  A    between atoms: _349  and  _350
REMARK  143  A    between atoms: _353  and  _355
REMARK  144  A    between atoms: _355  and  _356
REMARK  145  A    between atoms: _355  and  _358
REMARK  146  A    between atoms: _358  and  _359
REMARK  147  A    between atoms: _359  and  _360
REMARK  148  A    between atoms: _365  and  _367
REMARK  149  A    between atoms: _367  and  _368
REMARK  150  A    between atoms: _371  and  _373
REMARK  151  A    between atoms: _373  and  _374
REMARK  152  A    between atoms: _373  and  _376
REMARK  153  A    between atoms: _379  and  _381
REMARK  154  A    between atoms: _381  and  _382
REMARK  155  A    between atoms: _381  and  _384
REMARK  156  A    between atoms: _384  and  _385
REMARK  157  A    between atoms: _388  and  _390
REMARK  158  A    between atoms: _390  and  _391
REMARK  159  A    between atoms: _393  and  _395
REMARK  160  A    between atoms: _395  and  _396
REMARK  161  A    between atoms: _395  and  _398
REMARK  162  A    between atoms: _398  and  _399
REMARK  163  A    between atoms: _404  and  _405
REMARK  164  A    between atoms: _407  and  _409
REMARK  165  A    between atoms: _409  and  _410
REMARK  166  A    between atoms: _409  and  _412
REMARK  167  A    between atoms: _412  and  _413
REMARK  168  A    between atoms: _413  and  _414
REMARK  169  A    between atoms: _414  and  _415
REMARK  170  A    between atoms: _424  and  _426
REMARK  171  A    between atoms: _426  and  _427
REMARK  172  A    between atoms: _426  and  _429
REMARK  173  A    between atoms: _429  and  _430
REMARK  174  A    between atoms: _436  and  _438
REMARK  175  A    between atoms: _438  and  _439
REMARK  176  A    between atoms: _438  and  _441
REMARK  177  A    between atoms: _441  and  _442
REMARK  178  A    between atoms: _445  and  _447
REMARK  179  A    between atoms: _447  and  _448
REMARK  180  A    between atoms: _447  and  _450
REMARK  181  A    between atoms: _450  and  _451
REMARK  182  A    between atoms: _454  and  _456
REMARK  183  A    between atoms: _456  and  _457
REMARK  184  A    between atoms: _456  and  _459
REMARK  185  A    between atoms: _459  and  _460
REMARK  186  A    between atoms: _470  and  _472
REMARK  187  A    between atoms: _472  and  _473
REMARK  188  A    between atoms: _472  and  _475
REMARK  189  A    between atoms: _475  and  _476
REMARK  190  A    between atoms: _479  and  _481
REMARK  191  A    between atoms: _481  and  _482
REMARK  192  A    between atoms: _481  and  _484
REMARK  193  A    between atoms: _484  and  _485
REMARK  194  A    between atoms: _485  and  _486
REMARK  195  A    between atoms: _491  and  _493
REMARK  196  A    between atoms: _493  and  _494
REMARK  197  A    between atoms: _493  and  _496
REMARK  198  A    between atoms: _496  and  _497
REMARK  199  A    between atoms: _500  and  _502
REMARK  200  A    between atoms: _502  and  _503
REMARK  201  A    between atoms: _502  and  _505
REMARK  202  A    between atoms: _505  and  _506
REMARK  203  A    between atoms: _506  and  _507
REMARK  204  A    between atoms: _512  and  _514
REMARK  205  A    between atoms: _514  and  _515
REMARK  206  A    between atoms: _518  and  _520
REMARK  207  A    between atoms: _520  and  _521
REMARK  208  A    between atoms: _520  and  _523
REMARK  209  A    between atoms: _523  and  _524
REMARK  210  A    between atoms: _527  and  _529
REMARK  211  A    between atoms: _529  and  _530
REMARK  212  A    between atoms: _529  and  _532
REMARK  213  A    between atoms: _532  and  _533
REMARK  214  A    between atoms: _536  and  _538
REMARK  215  A    between atoms: _538  and  _539
REMARK  216  A    between atoms: _538  and  _541
REMARK  217  A    between atoms: _544  and  _546
REMARK  218  A    between atoms: _546  and  _547
REMARK  219  A    between atoms: _546  and  _549
REMARK  220  A    between atoms: _551  and  _553
REMARK  221  A    between atoms: _553  and  _554
REMARK  222  A    between atoms: _553  and  _556
REMARK  223  A    between atoms: _559  and  _561
REMARK  224  A    between atoms: _561  and  _562
REMARK  225  A    between atoms: _561  and  _564
REMARK  226  A    between atoms: _564  and  _565
REMARK  227  A    between atoms: _570  and  _572
REMARK  228  A    between atoms: _572  and  _573
REMARK  229  A    between atoms: _572  and  _575
REMARK  230  A    between atoms: _575  and  _576
REMARK  231  A    between atoms: _582  and  _584
REMARK  232  A    between atoms: _584  and  _585
REMARK  233  A    between atoms: _584  and  _587
REMARK  234  A    between atoms: _587  and  _588
REMARK  235  A    between atoms: _591  and  _593
REMARK  236  A    between atoms: _593  and  _594
REMARK  237  A    between atoms: _593  and  _596
REMARK  238  A    between atoms: _596  and  _597
REMARK  239  A    between atoms: _600  and  _602
REMARK  240  A    between atoms: _602  and  _603
REMARK  241  A    between atoms: _602  and  _605
REMARK  242  A    between atoms: _605  and  _606
REMARK                            x       y       z     vdW  Elec       q    Type
REMARK                         _______ _______ _______ _____ _____    ______ ____
ROOT
ATOM      1  CA  ARG A   2       3.617 -44.036 -20.303  0.00  0.00    +0.149 C 
ENDROOT
BRANCH   1   4
ATOM      2  C   TYR A   1       4.137 -42.780 -18.289  0.00  0.00    +0.239 C 
ATOM      3  O   TYR A   1       2.990 -42.845 -17.879  0.00  0.00    -0.274 OA
ATOM      4  N   ARG A   2       4.527 -43.336 -19.418  0.00  0.00    -0.297 N 
ATOM      5  H   ARG A   2       5.530 -43.270 -19.685  0.00  0.00    +0.150 HD
BRANCH   2   6
ATOM      6  CA  TYR A   1       5.233 -42.064 -17.516  0.00  0.00    +0.149 C 
BRANCH   6   7
ATOM      7  N   TYR A   1       4.628 -41.207 -16.509  0.00  0.00    -0.238 NA
ATOM      8  H   TYR A   1       3.711 -41.481 -16.102  0.00  0.00    +0.142 HD
ENDBRANCH   6   7
BRANCH   6   9
ATOM      9  CB  TYR A   1       6.215 -43.080 -16.896  0.00  0.00    +0.053 C 
BRANCH   9  10
ATOM     10  CG  TYR A   1       5.577 -44.122 -16.005  0.00  0.00    -0.020 A 
ATOM     11  CD2 TYR A   1       5.404 -43.882 -14.648  0.00  0.00    -0.001 A 
ATOM     12  CE2 TYR A   1       4.845 -44.832 -13.829  0.00  0.00    +0.036 A 
ATOM     13  CZ  TYR A   1       4.428 -46.027 -14.352  0.00  0.00    +0.134 A 
ATOM     14  CE1 TYR A   1       4.575 -46.296 -15.690  0.00  0.00    +0.036 A 
ATOM     15  CD1 TYR A   1       5.157 -45.347 -16.512  0.00  0.00    -0.001 A 
BRANCH  13  16
ATOM     16  OH  TYR A   1       3.846 -46.990 -13.554  0.00  0.00    -0.506 OA
ATOM     17  HH  TYR A   1       3.805 -46.663 -12.621  0.00  0.00    +0.292 HD
ENDBRANCH  13  16
ENDBRANCH   9  10
ENDBRANCH   6   9
ENDBRANCH   2   6
ENDBRANCH   1   4
BRANCH   1  18
ATOM     18  C   ARG A   2       3.707 -45.542 -20.106  0.00  0.00    +0.241 C 
ATOM     19  N   PHE A   3       2.548 -46.144 -19.862  0.00  0.00    -0.297 N 
ATOM     20  H   PHE A   3       1.696 -45.549 -19.818  0.00  0.00    +0.150 HD
ATOM     21  O   ARG A   2       4.789 -46.128 -20.151  0.00  0.00    -0.273 OA
BRANCH  19  22
ATOM     22  CA  PHE A   3       2.383 -47.575 -19.652  0.00  0.00    +0.153 C 
BRANCH  22  23
ATOM     23  C   PHE A   3       1.695 -48.169 -20.871  0.00  0.00    +0.241 C 
ATOM     24  O   PHE A   3       0.666 -47.663 -21.341  0.00  0.00    -0.273 OA
ATOM     25  N   LEU A   4       2.263 -49.253 -21.378  0.00  0.00    -0.298 N 
ATOM     26  H   LEU A   4       3.101 -49.640 -20.899  0.00  0.00    +0.150 HD
BRANCH  25  27
ATOM     27  CA  LEU A   4       1.772 -49.937 -22.581  0.00  0.00    +0.137 C 
BRANCH  27  28
ATOM     28  C   LEU A   4       0.501 -50.729 -22.307  0.00  0.00    +0.227 C 
ATOM     29  O   LEU A   4       0.541 -51.723 -21.587  0.00  0.00    -0.286 OA
ENDBRANCH  27  28
BRANCH  27  30
ATOM     30  CB  LEU A   4       2.858 -50.893 -23.061  0.00  0.00    +0.028 C 
BRANCH  30  31
ATOM     31  CG  LEU A   4       2.516 -51.753 -24.276  0.00  0.00    +0.002 C 
ATOM     32  CD2 LEU A   4       3.646 -52.730 -24.548  0.00  0.00    +0.000 C 
ATOM     33  CD1 LEU A   4       2.241 -50.854 -25.485  0.00  0.00    +0.000 C 
ENDBRANCH  30  31
ENDBRANCH  27  30
ENDBRANCH  25  27
ENDBRANCH  22  23
BRANCH  22  34
ATOM     34  CB  PHE A   3       1.532 -47.820 -18.402  0.00  0.00    +0.055 C 
BRANCH  34  35
ATOM     35  CG  PHE A   3       1.121 -49.248 -18.214  0.00  0.00    -0.020 A 
ATOM     36  CD2 PHE A   3       1.999 -50.161 -17.686  0.00  0.00    -0.004 A 
ATOM     37  CE2 PHE A   3       1.624 -51.490 -17.520  0.00  0.00    -0.000 A 
ATOM     38  CZ  PHE A   3       0.369 -51.895 -17.876  0.00  0.00    -0.000 A 
ATOM     39  CE1 PHE A   3      -0.519 -51.012 -18.405  0.00  0.00    -0.000 A 
ATOM     40  CD1 PHE A   3      -0.144 -49.686 -18.587  0.00  0.00    -0.004 A 
ENDBRANCH  34  35
ENDBRANCH  22  34
ENDBRANCH  19  22
ENDBRANCH   1  18
BRANCH   1  41
ATOM     41  CB  ARG A   2       3.973 -43.661 -21.739  0.00  0.00    +0.033 C 
BRANCH  41  42
ATOM     42  CG  ARG A   2       3.494 -42.281 -22.150  0.00  0.00    +0.045 C 
BRANCH  42  43
ATOM     43  CD  ARG A   2       4.327 -41.733 -23.317  0.00  0.00    +0.174 C 
BRANCH  43  44
ATOM     44  NE  ARG A   2       5.640 -41.302 -22.854  0.00  0.00    -0.265 N 
ATOM     45  HE  ARG A   2       6.055 -41.789 -22.034  0.00  0.00    +0.259 HD
ATOM     46  CZ  ARG A   2       6.336 -40.325 -23.417  0.00  0.00    +0.342 C 
ATOM     47  NH2 ARG A   2       7.481 -39.944 -22.902  0.00  0.00    -0.292 N 
ATOM     48 HH21 ARG A   2       7.847 -40.409 -22.047  0.00  0.00    +0.255 HD
ATOM     49 HH22 ARG A   2       8.022 -39.177 -23.349  0.00  0.00    +0.255 HD
ATOM     50  NH1 ARG A   2       5.899 -39.737 -24.519  0.00  0.00    -0.292 N 
ATOM     51 HH11 ARG A   2       5.003 -40.041 -24.950  0.00  0.00    +0.255 HD
ATOM     52 HH12 ARG A   2       6.452 -38.971 -24.954  0.00  0.00    +0.255 HD
ENDBRANCH  43  44
ENDBRANCH  42  43
ENDBRANCH  41  42
ENDBRANCH   1  41
TORSDOF 19
REMARK  Name = ../refined-set-2016/4wn5/4wn5_pocket.pdb
REMARK  242 active torsions:
REMARK  status: ('A' for Active; 'I' for Inactive)
REMARK    1  A    between atoms: _1  and  _5
REMARK    2  A    between atoms: _5  and  _6
REMARK    3  A    between atoms: _5  and  _8
REMARK    4  A    between atoms: _8  and  _9
REMARK    5  A    between atoms: _9  and  _10
REMARK    6  A    between atoms: _10  and  _11
REMARK    7  A    between atoms: _20  and  _22
REMARK    8  A    between atoms: _22  and  _23
REMARK    9  A    between atoms: _25  and  _27
REMARK   10  A    between atoms: _27  and  _28
REMARK   11  A    between atoms: _31  and  _33
REMARK   12  A    between atoms: _33  and  _34
REMARK   13  A    between atoms: _33  and  _36
REMARK   14  A    between atoms: _36  and  _37
REMARK   15  A    between atoms: _43  and  _45
REMARK   16  A    between atoms: _45  and  _46
REMARK   17  A    between atoms: _45  and  _48
REMARK   18  A    between atoms: _48  and  _49
REMARK   19  A    between atoms: _52  and  _54
REMARK   20  A    between atoms: _54  and  _55
REMARK   21  A    between atoms: _54  and  _57
REMARK   22  A    between atoms: _57  and  _58
REMARK   23  A    between atoms: _60  and  _62
REMARK   24  A    between atoms: _62  and  _63
REMARK   25  A    between atoms: _62  and  _65
REMARK   26  A    between atoms: _65  and  _66
REMARK   27  A    between atoms: _66  and  _67
REMARK   28  A    between atoms: _67  and  _68
REMARK   29  A    between atoms: _77  and  _79
REMARK   30  A    between atoms: _79  and  _80
REMARK   31  A    between atoms: _79  and  _82
REMARK   32  A    between atoms: _82  and  _83
REMARK   33  A    between atoms: _88  and  _90
REMARK   34  A    between atoms: _90  and  _91
REMARK   35  A    between atoms: _90  and  _93
REMARK   36  A    between atoms: _93  and  _94
REMARK   37  A    between atoms: _94  and  _95
REMARK   38  A    between atoms: _97  and  _99
REMARK   39  A    between atoms: _99  and  _100
REMARK   40  A    between atoms: _99  and  _102
REMARK   41  A    between atoms: _102  and  _103
REMARK   42  A    between atoms: _109  and  _111
REMARK   43  A    between atoms: _111  and  _112
REMARK   44  A    between atoms: _111  and  _114
REMARK   45  A    between atoms: _114  and  _115
REMARK   46  A    between atoms: _120  and  _121
REMARK   47  A    between atoms: _123  and  _125
REMARK   48  A    between atoms: _125  and  _126
REMARK   49  A    between atoms: _125  and  _128
REMARK   50  A    between atoms: _130  and  _132
REMARK   51  A    between atoms: _132  and  _133
REMARK   52  A    between atoms: _132  and  _135
REMARK   53  A    between atoms: _135  and  _136
REMARK   54  A    between atoms: _139  and  _141
REMARK   55  A    between atoms: _141  and  _142
REMARK   56  A    between atoms: _141  and  _144
REMARK   57  A    between atoms: _144  and  _145
REMARK   58  A    between atoms: _145  and  _146
REMARK   59  A    between atoms: _146  and  _147
REMARK   60  A    between atoms: _156  and  _158
REMARK   61  A    between atoms: _158  and  _159
REMARK   62  A    between atoms: _158  and  _161
REMARK   63  A    between atoms: _161  and  _162
REMARK   64  A    between atoms: _165  and  _167
REMARK   65  A    between atoms: _167  and  _168
REMARK   66  A    between atoms: _167  and  _170
REMARK   67  A    between atoms: _170  and  _171
REMARK   68  A    between atoms: _171  and  _172
REMARK   69  A    between atoms: _175  and  _177
REMARK   70  A    between atoms: _177  and  _178
REMARK   71  A    between atoms: _177  and  _180
REMARK   72  A    between atoms: _183  and  _185
REMARK   73  A    between atoms: _185  and  _186
REMARK   74  A    between atoms: _189  and  _191
REMARK   75  A    between atoms: _191  and  _192
REMARK   76  A    between atoms: _191  and  _194
REMARK   77  A    between atoms: _194  and  _195
REMARK   78  A    between atoms: _200  and  _201
REMARK   79  A    between atoms: _203  and  _205
REMARK   80  A    between atoms: _205  and  _206
REMARK   81  A    between atoms: _205  and  _208
REMARK   82  A    between atoms: _208  and  _209
REMARK   83  A    between atoms: _212  and  _214
REMARK   84  A    between atoms: _214  and  _215
REMARK   85  A    between atoms: _214  and  _217
REMARK   86  A    between atoms: _217  and  _218
REMARK   87  A    between atoms: _220  and  _222
REMARK   88  A    between atoms: _222  and  _223
REMARK   89  A    between atoms: _226  and  _228
REMARK   90  A    between atoms: _228  and  _229
REMARK   91  A    between atoms: _228  and  _231
REMARK   92  A    between atoms: _231  and  _232
REMARK   93  A    between atoms: _237  and  _238
REMARK   94  A    between atoms: _240  and  _242
REMARK   95  A    between atoms: _242  and  _243
REMARK   96  A    between atoms: _242  and  _245
REMARK   97  A    between atoms: _245  and  _246
REMARK   98  A    between atoms: _251  and  _252
REMARK   99  A    between atoms: _254  and  _256
REMARK  100  A    between atoms: _256  and  _257
REMARK  101  A    between atoms: _256  and  _259
REMARK  102  A    between atoms: _259  and  _260
REMARK  103  A    between atoms: _263  and  _265
REMARK  104  A    between atoms: _265  and  _266
REMARK  105  A    between atoms: _269  and  _271
REMARK  106  A    between atoms: _271  and  _272
REMARK  107  A    between atoms: _271  and  _274
REMARK  108  A    between atoms: _277  and  _279
REMARK  109  A    between atoms: _279  and  _280
REMARK  110  A    between atoms: _279  and  _282
REMARK  111  A    between atoms: _282  and  _283
REMARK  112  A    between atoms: _285  and  _287
REMARK  113  A    between atoms: _287  and  _288
REMARK  114  A    between atoms: _287  and  _290
REMARK  115  A    between atoms: _290  and  _291
REMARK  116  A    between atoms: _291  and  _292
REMARK  117  A    between atoms: _292  and  _293
REMARK  118  A    between atoms: _293  and  _294
REMARK  119  A    between atoms: _298  and  _300
REMARK  120  A    between atoms: _300  and  _301
REMARK  121  A    between atoms: _300  and  _303
REMARK  122  A    between atoms: _303  and  _304
REMARK  123  A    between atoms: _306  and  _308
REMARK  124  A    between atoms: _308  and  _309
REMARK  125  A    between atoms: _308  and  _311
REMARK  126  A    between atoms: _311  and  _312
REMARK  127  A    between atoms: _315  and  _317
REMARK  128  A    between atoms: _317  and  _318
REMARK  129  A    between atoms: _317  and  _320
REMARK  130  A    between atoms: _320  and  _321
REMARK  131  A    between atoms: _326  and  _328
REMARK  132  A    between atoms: _328  and  _329
REMARK  133  A    between atoms: _328  and  _331
REMARK  134  A    between atoms: _331  and  _332
REMARK  135  A    between atoms: _335  and  _337
REMARK  136  A    between atoms: _337  and  _338
REMARK  137  A    between atoms: _337  and  _340
REMARK  138  A    between atoms: _340  and  _341
REMARK  139  A    between atoms: _344  and  _346
REMARK  140  A    between atoms: _346  and  _347
REMARK  141  A    between atoms: _346  and  _349
REMARK  142  A    between atoms: _349  and  _350
REMARK  143  A    between atoms: _353  and  _355
REMARK  144  A    between atoms: _355  and  _356
REMARK  145  A    between atoms: _355  and  _358
REMARK  146  A    between atoms: _358  and  _359
REMARK  147  A    between atoms: _359  and  _360
REMARK  148  A    between atoms: _365  and  _367
REMARK  149  A    between atoms: _367  and  _368
REMARK  150  A    between atoms: _371  and  _373
REMARK  151  A    between atoms: _373  and  _374
REMARK  152  A    between atoms: _373  and  _376
REMARK  153  A    between atoms: _379  and  _381
REMARK  154  A    between atoms: _381  and  _382
REMARK  155  A    between atoms: _381  and  _384
REMARK  156  A    between atoms: _384  and  _385
REMARK  157  A    between atoms: _388  and  _390
REMARK  158  A    between atoms: _390  and  _391
REMARK  159  A    between atoms: _393  and  _395
REMARK  160  A    between atoms: _395  and  _396
REMARK  161  A    between atoms: _395  and  _398
REMARK  162  A    between atoms: _398  and  _399
REMARK  163  A    between atoms: _404  and  _405
REMARK  164  A    between atoms: _407  and  _409
REMARK  165  A    between atoms: _409  and  _410
REMARK  166  A    between atoms: _409  and  _412
REMARK  167  A    between atoms: _412  and  _413
REMARK  168  A    between atoms: _413  and  _414
REMARK  169  A    between atoms: _414  and  _415
REMARK  170  A    between atoms: _424  and  _426
REMARK  171  A    between atoms: _426  and  _427
REMARK  172  A    between atoms: _426  and  _429
REMARK  173  A    between atoms: _429  and  _430
REMARK  174  A    between atoms: _436  and  _438
REMARK  175  A    between atoms: _438  and  _439
REMARK  176  A    between atoms: _438  and  _441
REMARK  177  A    between atoms: _441  and  _442
REMARK  178  A    between atoms: _445  and  _447
REMARK  179  A    between atoms: _447  and  _448
REMARK  180  A    between atoms: _447  and  _450
REMARK  181  A    between atoms: _450  and  _451
REMARK  182  A    between atoms: _454  and  _456
REMARK  183  A    between atoms: _456  and  _457
REMARK  184  A    between atoms: _456  and  _459
REMARK  185  A    between atoms: _459  and  _460
REMARK  186  A    between atoms: _470  and  _472
REMARK  187  A    between atoms: _472  and  _473
REMARK  188  A    between atoms: _472  and  _475
REMARK  189  A    between atoms: _475  and  _476
REMARK  190  A    between atoms: _479  and  _481
REMARK  191  A    between atoms: _481  and  _482
REMARK  192  A    between atoms: _481  and  _484
REMARK  193  A    between atoms: _484  and  _485
REMARK  194  A    between atoms: _485  and  _486
REMARK  195  A    between atoms: _491  and  _493
REMARK  196  A    between atoms: _493  and  _494
REMARK  197  A    between atoms: _493  and  _496
REMARK  198  A    between atoms: _496  and  _497
REMARK  199  A    between atoms: _500  and  _502
REMARK  200  A    between atoms: _502  and  _503
REMARK  201  A    between atoms: _502  and  _505
REMARK  202  A    between atoms: _505  and  _506
REMARK  203  A    between atoms: _506  and  _507
REMARK  204  A    between atoms: _512  and  _514
REMARK  205  A    between atoms: _514  and  _515
REMARK  206  A    between atoms: _518  and  _520
REMARK  207  A    between atoms: _520  and  _521
REMARK  208  A    between atoms: _520  and  _523
REMARK  209  A    between atoms: _523  and  _524
REMARK  210  A    between atoms: _527  and  _529
REMARK  211  A    between atoms: _529  and  _530
REMARK  212  A    between atoms: _529  and  _532
REMARK  213  A    between atoms: _532  and  _533
REMARK  214  A    between atoms: _536  and  _538
REMARK  215  A    between atoms: _538  and  _539
REMARK  216  A    between atoms: _538  and  _541
REMARK  217  A    between atoms: _544  and  _546
REMARK  218  A    between atoms: _546  and  _547
REMARK  219  A    between atoms: _546  and  _549
REMARK  220  A    between atoms: _551  and  _553
REMARK  221  A    between atoms: _553  and  _554
REMARK  222  A    between atoms: _553  and  _556
REMARK  223  A    between atoms: _559  and  _561
REMARK  224  A    between atoms: _561  and  _562
REMARK  225  A    between atoms: _561  and  _564
REMARK  226  A    between atoms: _564  and  _565
REMARK  227  A    between atoms: _570  and  _572
REMARK  228  A    between atoms: _572  and  _573
REMARK  229  A    between atoms: _572  and  _575
REMARK  230  A    between atoms: _575  and  _576
REMARK  231  A    between atoms: _582  and  _584
REMARK  232  A    between atoms: _584  and  _585
REMARK  233  A    between atoms: _584  and  _587
REMARK  234  A    between atoms: _587  and  _588
REMARK  235  A    between atoms: _591  and  _593
REMARK  236  A    between atoms: _593  and  _594
REMARK  237  A    between atoms: _593  and  _596
REMARK  238  A    between atoms: _596  and  _597
REMARK  239  A    between atoms: _600  and  _602
REMARK  240  A    between atoms: _602  and  _603
REMARK  241  A    between atoms: _602  and  _605
REMARK  242  A    between atoms: _605  and  _606
REMARK                            x       y       z     vdW  Elec       q    Type
REMARK                         _______ _______ _______ _____ _____    ______ ____
ROOT
ATOM      1  CA  GLN A   4       2.297 -42.283 -12.068  0.00  0.00    +0.149 C 
ENDROOT
BRANCH   1   3
ATOM      2  C   THR A   3       1.471 -42.525 -14.328  0.00  0.00    +0.243 C 
ATOM      3  N   GLN A   4       1.305 -42.709 -13.040  0.00  0.00    -0.297 N 
ATOM      4  H   GLN A   4       0.437 -43.174 -12.705  0.00  0.00    +0.150 HD
ATOM      5  O   THR A   3       2.435 -41.922 -14.798  0.00  0.00    -0.273 OA
BRANCH   2   6
ATOM      6  CA  THR A   3       0.417 -43.132 -15.228  0.00  0.00    +0.176 C 
BRANCH   6   8
ATOM      7  C   TRP A   2      -0.478 -42.151 -17.278  0.00  0.00    +0.241 C 
ATOM      8  N   THR A   3       0.536 -42.595 -16.557  0.00  0.00    -0.295 N 
ATOM      9  H   THR A   3       1.485 -42.553 -16.979  0.00  0.00    +0.150 HD
ATOM     10  O   TRP A   2      -1.623 -41.989 -16.855  0.00  0.00    -0.273 OA
BRANCH   7  11
ATOM     11  CA  TRP A   2      -0.117 -41.804 -18.715  0.00  0.00    +0.153 C 
BRANCH  11  14
ATOM     12  C   LEU A   1      -0.659 -43.822 -19.913  0.00  0.00    +0.238 C 
ATOM     13  O   LEU A   1       0.352 -44.367 -19.496  0.00  0.00    -0.274 OA
ATOM     14  N   TRP A   2      -0.951 -42.577 -19.611  0.00  0.00    -0.297 N 
ATOM     15  H   TRP A   2      -1.798 -42.138 -20.024  0.00  0.00    +0.150 HD
BRANCH  12  16
ATOM     16  CA  LEU A   1      -1.674 -44.584 -20.750  0.00  0.00    +0.145 C 
BRANCH  16  17
ATOM     17  N   LEU A   1      -0.978 -45.367 -21.751  0.00  0.00    -0.238 NA
ATOM     18  H   LEU A   1      -0.460 -46.212 -21.436  0.00  0.00    +0.142 HD
ENDBRANCH  16  17
BRANCH  16  19
ATOM     19  CB  LEU A   1      -2.454 -45.499 -19.820  0.00  0.00    +0.026 C 
BRANCH  19  20
ATOM     20  CG  LEU A   1      -3.603 -46.291 -20.414  0.00  0.00    +0.002 C 
ATOM     21  CD2 LEU A   1      -3.983 -47.425 -19.472  0.00  0.00    +0.000 C 
ATOM     22  CD1 LEU A   1      -4.775 -45.360 -20.666  0.00  0.00    +0.000 C 
ENDBRANCH  19  20
ENDBRANCH  16  19
ENDBRANCH  12  16
ENDBRANCH  11  14
BRANCH  11  23
ATOM     23  CB  TRP A   2      -0.313 -40.324 -18.980  0.00  0.00    +0.057 C 
BRANCH  23  24
ATOM     24  CG  TRP A   2       0.373 -39.841 -20.201  0.00  0.00    -0.002 A 
ATOM     25  CD2 TRP A   2       1.762 -39.525 -20.325  0.00  0.00    +0.013 A 
ATOM     26  CE3 TRP A   2       2.848 -39.559 -19.446  0.00  0.00    +0.001 A 
ATOM     27  CZ3 TRP A   2       4.084 -39.170 -19.917  0.00  0.00    +0.000 A 
ATOM     28  CH2 TRP A   2       4.259 -38.727 -21.239  0.00  0.00    +0.001 A 
ATOM     29  CZ2 TRP A   2       3.221 -38.697 -22.108  0.00  0.00    +0.017 A 
ATOM     30  CE2 TRP A   2       1.975 -39.095 -21.643  0.00  0.00    +0.056 A 
ATOM     31  NE1 TRP A   2       0.772 -39.157 -22.291  0.00  0.00    -0.352 N 
ATOM     32  HE1 TRP A   2       0.612 -38.903 -23.287  0.00  0.00    +0.166 HD
ATOM     33  CD1 TRP A   2      -0.187 -39.605 -21.426  0.00  0.00    +0.068 A 
ENDBRANCH  23  24
ENDBRANCH  11  23
ENDBRANCH   7  11
ENDBRANCH   6   8
BRANCH   6  34
ATOM     34  CB  THR A   3       0.655 -44.664 -15.305  0.00  0.00    +0.137 C 
ATOM     35  CG2 THR A   3       0.183 -45.357 -14.025  0.00  0.00    +0.034 C 
BRANCH  34  36
ATOM     36  OG1 THR A   3      -0.033 -45.221 -16.441  0.00  0.00    -0.382 OA
ATOM     37  HG1 THR A   3       0.306 -44.799 -17.270  0.00  0.00    +0.210 HD
ENDBRANCH  34  36
ENDBRANCH   6  34
ENDBRANCH   2   6
ENDBRANCH   1   3
BRANCH   1  38
ATOM     38  C   GLN A   4       2.155 -43.214 -10.886  0.00  0.00    +0.241 C 
ATOM     39  N   THR A   5       3.269 -43.522 -10.229  0.00  0.00    -0.295 N 
ATOM     40  H   THR A   5       4.135 -42.979 -10.420  0.00  0.00    +0.150 HD
ATOM     41  O   GLN A   4       1.052 -43.638 -10.560  0.00  0.00    -0.273 OA
BRANCH  39  42
ATOM     42  CA  THR A   5       3.309 -44.592  -9.256  0.00  0.00    +0.176 C 
BRANCH  42  43
ATOM     43  C   THR A   5       4.035 -44.171  -8.009  0.00  0.00    +0.243 C 
ATOM     44  N   GLN A   6       3.480 -44.541  -6.852  0.00  0.00    -0.297 N 
ATOM     45  H   GLN A   6       2.505 -44.903  -6.860  0.00  0.00    +0.150 HD
ATOM     46  O   THR A   5       5.124 -43.574  -8.078  0.00  0.00    -0.273 OA
BRANCH  44  47
ATOM     47  CA  GLN A   6       4.182 -44.459  -5.582  0.00  0.00    +0.149 C 
BRANCH  47  48
ATOM     48  C   GLN A   6       4.454 -45.878  -5.121  0.00  0.00    +0.241 C 
ATOM     49  N   ALA A   7       5.666 -46.139  -4.648  0.00  0.00    -0.297 N 
ATOM     50  H   ALA A   7       6.348 -45.364  -4.523  0.00  0.00    +0.150 HD
ATOM     51  O   GLN A   6       3.575 -46.734  -5.200  0.00  0.00    -0.273 OA
BRANCH  49  52
ATOM     52  CA  ALA A   7       6.050 -47.499  -4.303  0.00  0.00    +0.149 C 
ATOM     53  CB  ALA A   7       6.911 -48.088  -5.392  0.00  0.00    +0.031 C 
BRANCH  52  54
ATOM     54  C   ALA A   7       6.790 -47.548  -2.999  0.00  0.00    +0.241 C 
ATOM     55  N   THR A   8       6.761 -48.737  -2.416  0.00  0.00    -0.296 N 
ATOM     56  H   THR A   8       6.148 -49.475  -2.818  0.00  0.00    +0.150 HD
ATOM     57  O   ALA A   7       7.399 -46.569  -2.558  0.00  0.00    -0.273 OA
BRANCH  55  58
ATOM     58  CA  THR A   8       7.546 -49.050  -1.244  0.00  0.00    +0.164 C 
BRANCH  58  59
ATOM     59  C   THR A   8       8.141 -50.429  -1.374  0.00  0.00    +0.229 C 
ATOM     60  O   THR A   8       7.551 -51.331  -1.973  0.00  0.00    -0.286 OA
ENDBRANCH  58  59
BRANCH  58  61
ATOM     61  CB  THR A   8       6.691 -48.982   0.040  0.00  0.00    +0.136 C 
ATOM     62  CG2 THR A   8       5.546 -49.995   0.036  0.00  0.00    +0.034 C 
BRANCH  61  63
ATOM     63  OG1 THR A   8       7.521 -49.215   1.173  0.00  0.00    -0.382 OA
ATOM     64  HG1 THR A   8       7.936 -50.111   1.098  0.00  0.00    +0.210 HD
ENDBRANCH  61  63
ENDBRANCH  58  61
ENDBRANCH  55  58
ENDBRANCH  52  54
ENDBRANCH  49  52
ENDBRANCH  47  48
BRANCH  47  65
ATOM     65  CB  GLN A   6       3.369 -43.693  -4.557  0.00  0.00    +0.039 C 
BRANCH  65  66
ATOM     66  CG  GLN A   6       4.064 -43.674  -3.208  0.00  0.00    +0.087 C 
BRANCH  66  67
ATOM     67  CD  GLN A   6       3.534 -42.693  -2.189  0.00  0.00    +0.219 C 
ATOM     68  OE1 GLN A   6       4.040 -42.649  -1.066  0.00  0.00    -0.275 OA
ATOM     69  NE2 GLN A   6       2.544 -41.915  -2.548  0.00  0.00    -0.329 N 
ATOM     70 HE21 GLN A   6       2.154 -41.225  -1.874  0.00  0.00    +0.145 HD
ATOM     71 HE22 GLN A   6       2.148 -41.987  -3.507  0.00  0.00    +0.145 HD
ENDBRANCH  66  67
ENDBRANCH  65  66
ENDBRANCH  47  65
ENDBRANCH  44  47
ENDBRANCH  42  43
BRANCH  42  72
ATOM     72  CB  THR A   5       4.013 -45.813  -9.889  0.00  0.00    +0.137 C 
ATOM     73  CG2 THR A   5       4.175 -46.951  -8.912  0.00  0.00    +0.034 C 
BRANCH  72  74
ATOM     74  OG1 THR A   5       3.267 -46.216 -11.042  0.00  0.00    -0.382 OA
ATOM     75  HG1 THR A   5       2.346 -46.458 -10.770  0.00  0.00    +0.210 HD
ENDBRANCH  72  74
ENDBRANCH  42  72
ENDBRANCH  39  42
ENDBRANCH   1  38
BRANCH   1  76
ATOM     76  CB  GLN A   4       2.022 -40.835 -11.675  0.00  0.00    +0.039 C 
BRANCH  76  77
ATOM     77  CG  GLN A   4       3.079 -40.225 -10.818  0.00  0.00    +0.087 C 
BRANCH  77  78
ATOM     78  CD  GLN A   4       3.050 -38.716 -10.877  0.00  0.00    +0.219 C 
ATOM     79  NE2 GLN A   4       4.181 -38.095 -10.623  0.00  0.00    -0.329 N 
ATOM     80 HE21 GLN A   4       5.036 -38.643 -10.398  0.00  0.00    +0.145 HD
ATOM     81 HE22 GLN A   4       4.220 -37.056 -10.647  0.00  0.00    +0.145 HD
ATOM     82  OE1 GLN A   4       2.020 -38.103 -11.146  0.00  0.00    -0.275 OA
ENDBRANCH  77  78
ENDBRANCH  76  77
ENDBRANCH   1  76
TORSDOF 32
REMARK  Name = ../refined-set-2016/4wn5/4wn5_pocket.pdb
REMARK  242 active torsions:
REMARK  status: ('A' for Active; 'I' for Inactive)
REMARK    1  A    between atoms: _1  and  _5
REMARK    2  A    between atoms: _5  and  _6
REMARK    3  A    between atoms: _5  and  _8
REMARK    4  A    between atoms: _8  and  _9
REMARK    5  A    between atoms: _9  and  _10
REMARK    6  A    between atoms: _10  and  _11
REMARK    7  A    between atoms: _20  and  _22
REMARK    8  A    between atoms: _22  and  _23
REMARK    9  A    between atoms: _25  and  _27
REMARK   10  A    between atoms: _27  and  _28
REMARK   11  A    between atoms: _31  and  _33
REMARK   12  A    between atoms: _33  and  _34
REMARK   13  A    between atoms: _33  and  _36
REMARK   14  A    between atoms: _36  and  _37
REMARK   15  A    between atoms: _43  and  _45
REMARK   16  A    between atoms: _45  and  _46
REMARK   17  A    between atoms: _45  and  _48
REMARK   18  A    between atoms: _48  and  _49
REMARK   19  A    between atoms: _52  and  _54
REMARK   20  A    between atoms: _54  and  _55
REMARK   21  A    between atoms: _54  and  _57
REMARK   22  A    between atoms: _57  and  _58
REMARK   23  A    between atoms: _60  and  _62
REMARK   24  A    between atoms: _62  and  _63
REMARK   25  A    between atoms: _62  and  _65
REMARK   26  A    between atoms: _65  and  _66
REMARK   27  A    between atoms: _66  and  _67
REMARK   28  A    between atoms: _67  and  _68
REMARK   29  A    between atoms: _77  and  _79
REMARK   30  A    between atoms: _79  and  _80
REMARK   31  A    between atoms: _79  and  _82
REMARK   32  A    between atoms: _82  and  _83
REMARK   33  A    between atoms: _88  and  _90
REMARK   34  A    between atoms: _90  and  _91
REMARK   35  A    between atoms: _90  and  _93
REMARK   36  A    between atoms: _93  and  _94
REMARK   37  A    between atoms: _94  and  _95
REMARK   38  A    between atoms: _97  and  _99
REMARK   39  A    between atoms: _99  and  _100
REMARK   40  A    between atoms: _99  and  _102
REMARK   41  A    between atoms: _102  and  _103
REMARK   42  A    between atoms: _109  and  _111
REMARK   43  A    between atoms: _111  and  _112
REMARK   44  A    between atoms: _111  and  _114
REMARK   45  A    between atoms: _114  and  _115
REMARK   46  A    between atoms: _120  and  _121
REMARK   47  A    between atoms: _123  and  _125
REMARK   48  A    between atoms: _125  and  _126
REMARK   49  A    between atoms: _125  and  _128
REMARK   50  A    between atoms: _130  and  _132
REMARK   51  A    between atoms: _132  and  _133
REMARK   52  A    between atoms: _132  and  _135
REMARK   53  A    between atoms: _135  and  _136
REMARK   54  A    between atoms: _139  and  _141
REMARK   55  A    between atoms: _141  and  _142
REMARK   56  A    between atoms: _141  and  _144
REMARK   57  A    between atoms: _144  and  _145
REMARK   58  A    between atoms: _145  and  _146
REMARK   59  A    between atoms: _146  and  _147
REMARK   60  A    between atoms: _156  and  _158
REMARK   61  A    between atoms: _158  and  _159
REMARK   62  A    between atoms: _158  and  _161
REMARK   63  A    between atoms: _161  and  _162
REMARK   64  A    between atoms: _165  and  _167
REMARK   65  A    between atoms: _167  and  _168
REMARK   66  A    between atoms: _167  and  _170
REMARK   67  A    between atoms: _170  and  _171
REMARK   68  A    between atoms: _171  and  _172
REMARK   69  A    between atoms: _175  and  _177
REMARK   70  A    between atoms: _177  and  _178
REMARK   71  A    between atoms: _177  and  _180
REMARK   72  A    between atoms: _183  and  _185
REMARK   73  A    between atoms: _185  and  _186
REMARK   74  A    between atoms: _189  and  _191
REMARK   75  A    between atoms: _191  and  _192
REMARK   76  A    between atoms: _191  and  _194
REMARK   77  A    between atoms: _194  and  _195
REMARK   78  A    between atoms: _200  and  _201
REMARK   79  A    between atoms: _203  and  _205
REMARK   80  A    between atoms: _205  and  _206
REMARK   81  A    between atoms: _205  and  _208
REMARK   82  A    between atoms: _208  and  _209
REMARK   83  A    between atoms: _212  and  _214
REMARK   84  A    between atoms: _214  and  _215
REMARK   85  A    between atoms: _214  and  _217
REMARK   86  A    between atoms: _217  and  _218
REMARK   87  A    between atoms: _220  and  _222
REMARK   88  A    between atoms: _222  and  _223
REMARK   89  A    between atoms: _226  and  _228
REMARK   90  A    between atoms: _228  and  _229
REMARK   91  A    between atoms: _228  and  _231
REMARK   92  A    between atoms: _231  and  _232
REMARK   93  A    between atoms: _237  and  _238
REMARK   94  A    between atoms: _240  and  _242
REMARK   95  A    between atoms: _242  and  _243
REMARK   96  A    between atoms: _242  and  _245
REMARK   97  A    between atoms: _245  and  _246
REMARK   98  A    between atoms: _251  and  _252
REMARK   99  A    between atoms: _254  and  _256
REMARK  100  A    between atoms: _256  and  _257
REMARK  101  A    between atoms: _256  and  _259
REMARK  102  A    between atoms: _259  and  _260
REMARK  103  A    between atoms: _263  and  _265
REMARK  104  A    between atoms: _265  and  _266
REMARK  105  A    between atoms: _269  and  _271
REMARK  106  A    between atoms: _271  and  _272
REMARK  107  A    between atoms: _271  and  _274
REMARK  108  A    between atoms: _277  and  _279
REMARK  109  A    between atoms: _279  and  _280
REMARK  110  A    between atoms: _279  and  _282
REMARK  111  A    between atoms: _282  and  _283
REMARK  112  A    between atoms: _285  and  _287
REMARK  113  A    between atoms: _287  and  _288
REMARK  114  A    between atoms: _287  and  _290
REMARK  115  A    between atoms: _290  and  _291
REMARK  116  A    between atoms: _291  and  _292
REMARK  117  A    between atoms: _292  and  _293
REMARK  118  A    between atoms: _293  and  _294
REMARK  119  A    between atoms: _298  and  _300
REMARK  120  A    between atoms: _300  and  _301
REMARK  121  A    between atoms: _300  and  _303
REMARK  122  A    between atoms: _303  and  _304
REMARK  123  A    between atoms: _306  and  _308
REMARK  124  A    between atoms: _308  and  _309
REMARK  125  A    between atoms: _308  and  _311
REMARK  126  A    between atoms: _311  and  _312
REMARK  127  A    between atoms: _315  and  _317
REMARK  128  A    between atoms: _317  and  _318
REMARK  129  A    between atoms: _317  and  _320
REMARK  130  A    between atoms: _320  and  _321
REMARK  131  A    between atoms: _326  and  _328
REMARK  132  A    between atoms: _328  and  _329
REMARK  133  A    between atoms: _328  and  _331
REMARK  134  A    between atoms: _331  and  _332
REMARK  135  A    between atoms: _335  and  _337
REMARK  136  A    between atoms: _337  and  _338
REMARK  137  A    between atoms: _337  and  _340
REMARK  138  A    between atoms: _340  and  _341
REMARK  139  A    between atoms: _344  and  _346
REMARK  140  A    between atoms: _346  and  _347
REMARK  141  A    between atoms: _346  and  _349
REMARK  142  A    between atoms: _349  and  _350
REMARK  143  A    between atoms: _353  and  _355
REMARK  144  A    between atoms: _355  and  _356
REMARK  145  A    between atoms: _355  and  _358
REMARK  146  A    between atoms: _358  and  _359
REMARK  147  A    between atoms: _359  and  _360
REMARK  148  A    between atoms: _365  and  _367
REMARK  149  A    between atoms: _367  and  _368
REMARK  150  A    between atoms: _371  and  _373
REMARK  151  A    between atoms: _373  and  _374
REMARK  152  A    between atoms: _373  and  _376
REMARK  153  A    between atoms: _379  and  _381
REMARK  154  A    between atoms: _381  and  _382
REMARK  155  A    between atoms: _381  and  _384
REMARK  156  A    between atoms: _384  and  _385
REMARK  157  A    between atoms: _388  and  _390
REMARK  158  A    between atoms: _390  and  _391
REMARK  159  A    between atoms: _393  and  _395
REMARK  160  A    between atoms: _395  and  _396
REMARK  161  A    between atoms: _395  and  _398
REMARK  162  A    between atoms: _398  and  _399
REMARK  163  A    between atoms: _404  and  _405
REMARK  164  A    between atoms: _407  and  _409
REMARK  165  A    between atoms: _409  and  _410
REMARK  166  A    between atoms: _409  and  _412
REMARK  167  A    between atoms: _412  and  _413
REMARK  168  A    between atoms: _413  and  _414
REMARK  169  A    between atoms: _414  and  _415
REMARK  170  A    between atoms: _424  and  _426
REMARK  171  A    between atoms: _426  and  _427
REMARK  172  A    between atoms: _426  and  _429
REMARK  173  A    between atoms: _429  and  _430
REMARK  174  A    between atoms: _436  and  _438
REMARK  175  A    between atoms: _438  and  _439
REMARK  176  A    between atoms: _438  and  _441
REMARK  177  A    between atoms: _441  and  _442
REMARK  178  A    between atoms: _445  and  _447
REMARK  179  A    between atoms: _447  and  _448
REMARK  180  A    between atoms: _447  and  _450
REMARK  181  A    between atoms: _450  and  _451
REMARK  182  A    between atoms: _454  and  _456
REMARK  183  A    between atoms: _456  and  _457
REMARK  184  A    between atoms: _456  and  _459
REMARK  185  A    between atoms: _459  and  _460
REMARK  186  A    between atoms: _470  and  _472
REMARK  187  A    between atoms: _472  and  _473
REMARK  188  A    between atoms: _472  and  _475
REMARK  189  A    between atoms: _475  and  _476
REMARK  190  A    between atoms: _479  and  _481
REMARK  191  A    between atoms: _481  and  _482
REMARK  192  A    between atoms: _481  and  _484
REMARK  193  A    between atoms: _484  and  _485
REMARK  194  A    between atoms: _485  and  _486
REMARK  195  A    between atoms: _491  and  _493
REMARK  196  A    between atoms: _493  and  _494
REMARK  197  A    between atoms: _493  and  _496
REMARK  198  A    between atoms: _496  and  _497
REMARK  199  A    between atoms: _500  and  _502
REMARK  200  A    between atoms: _502  and  _503
REMARK  201  A    between atoms: _502  and  _505
REMARK  202  A    between atoms: _505  and  _506
REMARK  203  A    between atoms: _506  and  _507
REMARK  204  A    between atoms: _512  and  _514
REMARK  205  A    between atoms: _514  and  _515
REMARK  206  A    between atoms: _518  and  _520
REMARK  207  A    between atoms: _520  and  _521
REMARK  208  A    between atoms: _520  and  _523
REMARK  209  A    between atoms: _523  and  _524
REMARK  210  A    between atoms: _527  and  _529
REMARK  211  A    between atoms: _529  and  _530
REMARK  212  A    between atoms: _529  and  _532
REMARK  213  A    between atoms: _532  and  _533
REMARK  214  A    between atoms: _536  and  _538
REMARK  215  A    between atoms: _538  and  _539
REMARK  216  A    between atoms: _538  and  _541
REMARK  217  A    between atoms: _544  and  _546
REMARK  218  A    between atoms: _546  and  _547
REMARK  219  A    between atoms: _546  and  _549
REMARK  220  A    between atoms: _551  and  _553
REMARK  221  A    between atoms: _553  and  _554
REMARK  222  A    between atoms: _553  and  _556
REMARK  223  A    between atoms: _559  and  _561
REMARK  224  A    between atoms: _561  and  _562
REMARK  225  A    between atoms: _561  and  _564
REMARK  226  A    between atoms: _564  and  _565
REMARK  227  A    between atoms: _570  and  _572
REMARK  228  A    between atoms: _572  and  _573
REMARK  229  A    between atoms: _572  and  _575
REMARK  230  A    between atoms: _575  and  _576
REMARK  231  A    between atoms: _582  and  _584
REMARK  232  A    between atoms: _584  and  _585
REMARK  233  A    between atoms: _584  and  _587
REMARK  234  A    between atoms: _587  and  _588
REMARK  235  A    between atoms: _591  and  _593
REMARK  236  A    between atoms: _593  and  _594
REMARK  237  A    between atoms: _593  and  _596
REMARK  238  A    between atoms: _596  and  _597
REMARK  239  A    between atoms: _600  and  _602
REMARK  240  A    between atoms: _602  and  _603
REMARK  241  A    between atoms: _602  and  _605
REMARK  242  A    between atoms: _605  and  _606
REMARK                            x       y       z     vdW  Elec       q    Type
REMARK                         _______ _______ _______ _____ _____    ______ ____
ROOT
ATOM      1  CA  HIS A   5      -0.860 -46.239  -9.291  0.00  0.00    +0.155 C 
ENDROOT
BRANCH   1   2
ATOM      2  C   HIS A   5      -1.995 -45.259  -9.460  0.00  0.00    +0.241 C 
ATOM      3  O   HIS A   5      -3.088 -45.456  -8.939  0.00  0.00    -0.273 OA
ATOM      4  N   PHE A   6      -1.734 -44.233 -10.269  0.00  0.00    -0.297 N 
ATOM      5  H   PHE A   6      -0.799 -44.197 -10.723  0.00  0.00    +0.150 HD
BRANCH   4   6
ATOM      6  CA  PHE A   6      -2.668 -43.166 -10.557  0.00  0.00    +0.153 C 
BRANCH   6   7
ATOM      7  C   PHE A   6      -2.713 -42.962 -12.051  0.00  0.00    +0.241 C 
ATOM      8  N   LEU A   7      -3.905 -42.745 -12.574  0.00  0.00    -0.297 N 
ATOM      9  H   LEU A   7      -4.748 -42.766 -11.965  0.00  0.00    +0.150 HD
ATOM     10  O   PHE A   6      -1.681 -42.987 -12.728  0.00  0.00    -0.273 OA
BRANCH   8  11
ATOM     11  CA  LEU A   7      -4.049 -42.477 -13.991  0.00  0.00    +0.149 C 
BRANCH  11  12
ATOM     12  C   LEU A   7      -3.995 -40.974 -14.191  0.00  0.00    +0.241 C 
ATOM     13  O   LEU A   7      -4.795 -40.230 -13.631  0.00  0.00    -0.273 OA
ATOM     14  N   ILE A   8      -3.033 -40.533 -14.974  0.00  0.00    -0.297 N 
ATOM     15  H   ILE A   8      -2.364 -41.208 -15.396  0.00  0.00    +0.150 HD
BRANCH  14  16
ATOM     16  CA  ILE A   8      -2.895 -39.111 -15.257  0.00  0.00    +0.149 C 
BRANCH  16  17
ATOM     17  C   ILE A   8      -3.794 -38.679 -16.407  0.00  0.00    +0.241 C 
ATOM     18  O   ILE A   8      -4.337 -37.573 -16.399  0.00  0.00    -0.273 OA
ATOM     19  N   SER A   9      -3.961 -39.565 -17.379  0.00  0.00    -0.296 N 
ATOM     20  H   SER A   9      -3.436 -40.462 -17.350  0.00  0.00    +0.150 HD
BRANCH  19  21
ATOM     21  CA  SER A   9      -4.876 -39.299 -18.495  0.00  0.00    +0.166 C 
BRANCH  21  22
ATOM     22  CB  SER A   9      -5.440 -40.618 -18.989  0.00  0.00    +0.229 C 
ATOM     23  OG  SER A   9      -4.700 -41.577 -19.198  0.00  0.00    -0.286 OA
ENDBRANCH  21  22
BRANCH  21  24
ATOM     24  C   SER A   9      -4.161 -38.548 -19.637  0.00  0.00    +0.165 C 
BRANCH  24  25
ATOM     25  O   SER A   9      -5.053 -38.198 -20.689  0.00  0.00    -0.380 OA
ATOM     26  H   SER A   9      -4.554 -37.720 -21.398  0.00  0.00    +0.211 HD
ENDBRANCH  24  25
ENDBRANCH  21  24
ENDBRANCH  19  21
ENDBRANCH  16  17
BRANCH  16  27
ATOM     27  CB  ILE A   8      -1.417 -38.770 -15.518  0.00  0.00    +0.027 C 
ATOM     28  CG2 ILE A   8      -1.223 -37.299 -15.835  0.00  0.00    +0.002 C 
BRANCH  27  29
ATOM     29  CG1 ILE A   8      -0.558 -39.168 -14.311  0.00  0.00    +0.002 C 
ATOM     30  CD1 ILE A   8      -0.963 -38.566 -12.958  0.00  0.00    +0.000 C 
ENDBRANCH  27  29
ENDBRANCH  16  27
ENDBRANCH  14  16
ENDBRANCH  11  12
BRANCH  11  31
ATOM     31  CB  LEU A   7      -5.364 -43.047 -14.499  0.00  0.00    +0.029 C 
BRANCH  31  32
ATOM     32  CG  LEU A   7      -5.606 -43.151 -16.006  0.00  0.00    +0.002 C 
ATOM     33  CD2 LEU A   7      -7.025 -43.648 -16.277  0.00  0.00    +0.000 C 
ATOM     34  CD1 LEU A   7      -4.579 -44.063 -16.667  0.00  0.00    +0.000 C 
ENDBRANCH  31  32
ENDBRANCH  11  31
ENDBRANCH   8  11
ENDBRANCH   6   7
BRANCH   6  35
ATOM     35  CB  PHE A   6      -2.211 -41.882  -9.859  0.00  0.00    +0.055 C 
BRANCH  35  36
ATOM     36  CG  PHE A   6      -2.011 -42.065  -8.393  0.00  0.00    -0.020 A 
ATOM     37  CD2 PHE A   6      -3.063 -41.920  -7.510  0.00  0.00    -0.004 A 
ATOM     38  CE2 PHE A   6      -2.877 -42.132  -6.145  0.00  0.00    -0.000 A 
ATOM     39  CZ  PHE A   6      -1.632 -42.483  -5.664  0.00  0.00    -0.000 A 
ATOM     40  CE1 PHE A   6      -0.585 -42.650  -6.525  0.00  0.00    -0.000 A 
ATOM     41  CD1 PHE A   6      -0.775 -42.449  -7.895  0.00  0.00    -0.004 A 
ENDBRANCH  35  36
ENDBRANCH   6  35
ENDBRANCH   4   6
ENDBRANCH   1   2
BRANCH   1  44
ATOM     42  C   VAL A   4       0.088 -46.795  -7.125  0.00  0.00    +0.241 C 
ATOM     43  O   VAL A   4       1.065 -46.058  -7.274  0.00  0.00    -0.273 OA
ATOM     44  N   HIS A   5      -0.896 -46.888  -8.009  0.00  0.00    -0.297 N 
ATOM     45  H   HIS A   5      -1.732 -47.456  -7.764  0.00  0.00    +0.150 HD
BRANCH  42  46
ATOM     46  CA  VAL A   4      -0.048 -47.679  -5.896  0.00  0.00    +0.149 C 
BRANCH  46  48
ATOM     47  C   CYS A   3       1.478 -49.572  -5.689  0.00  0.00    +0.242 C 
ATOM     48  N   VAL A   4       1.248 -48.270  -5.645  0.00  0.00    -0.297 N 
ATOM     49  H   VAL A   4       2.042 -47.637  -5.418  0.00  0.00    +0.150 HD
ATOM     50  O   CYS A   3       0.585 -50.420  -5.705  0.00  0.00    -0.273 OA
BRANCH  47  51
ATOM     51  CA  CYS A   3       2.931 -49.964  -5.785  0.00  0.00    +0.160 C 
BRANCH  51  54
ATOM     52  C   VAL A   2       4.087 -51.344  -4.119  0.00  0.00    +0.241 C 
ATOM     53  O   VAL A   2       4.775 -50.418  -3.685  0.00  0.00    -0.273 OA
ATOM     54  N   CYS A   3       3.175 -51.212  -5.083  0.00  0.00    -0.296 N 
ATOM     55  H   CYS A   3       2.610 -52.045  -5.345  0.00  0.00    +0.150 HD
BRANCH  52  56
ATOM     56  CA  VAL A   2       4.250 -52.746  -3.554  0.00  0.00    +0.148 C 
BRANCH  56  58
ATOM     57  C   ILE A   1       6.268 -54.062  -3.992  0.00  0.00    +0.238 C 
ATOM     58  N   VAL A   2       5.685 -53.023  -3.409  0.00  0.00    -0.297 N 
ATOM     59  H   VAL A   2       6.264 -52.382  -2.829  0.00  0.00    +0.150 HD
ATOM     60  O   ILE A   1       5.646 -54.953  -4.570  0.00  0.00    -0.274 OA
BRANCH  57  61
ATOM     61  CA  ILE A   1       7.783 -54.093  -3.920  0.00  0.00    +0.145 C 
BRANCH  61  62
ATOM     62  N   ILE A   1       8.219 -55.466  -3.657  0.00  0.00    -0.238 NA
ATOM     63  H   ILE A   1       7.861 -56.228  -4.268  0.00  0.00    +0.142 HD
ENDBRANCH  61  62
BRANCH  61  64
ATOM     64  CB  ILE A   1       8.405 -53.600  -5.241  0.00  0.00    +0.025 C 
ATOM     65  CG2 ILE A   1       7.796 -52.270  -5.698  0.00  0.00    +0.002 C 
BRANCH  64  66
ATOM     66  CG1 ILE A   1       9.920 -53.466  -5.074  0.00  0.00    +0.002 C 
ATOM     67  CD1 ILE A   1      10.676 -53.303  -6.378  0.00  0.00    +0.000 C 
ENDBRANCH  64  66
ENDBRANCH  61  64
ENDBRANCH  57  61
ENDBRANCH  56  58
BRANCH  56  68
ATOM     68  CB  VAL A   2       3.503 -52.862  -2.206  0.00  0.00    +0.027 C 
ATOM     69  CG2 VAL A   2       3.717 -54.233  -1.634  0.00  0.00    +0.002 C 
ATOM     70  CG1 VAL A   2       2.028 -52.552  -2.382  0.00  0.00    +0.002 C 
ENDBRANCH  56  68
ENDBRANCH  52  56
ENDBRANCH  51  54
BRANCH  51  71
ATOM     71  CB  CYS A   3       3.231 -50.138  -7.282  0.00  0.00    +0.098 C 
ATOM     72  SG  CYS A   3       4.915 -50.525  -7.696  0.00  0.00    -0.080 S 
ENDBRANCH  51  71
ENDBRANCH  47  51
ENDBRANCH  46  48
BRANCH  46  73
ATOM     73  CB  VAL A   4      -0.605 -46.887  -4.682  0.00  0.00    +0.027 C 
ATOM     74  CG2 VAL A   4       0.318 -45.818  -4.185  0.00  0.00    +0.002 C 
ATOM     75  CG1 VAL A   4      -1.983 -46.304  -4.968  0.00  0.00    +0.002 C 
ENDBRANCH  46  73
ENDBRANCH  42  46
ENDBRANCH   1  44
BRANCH   1  76
ATOM     76  CB  HIS A   5      -0.965 -47.283 -10.399  0.00  0.00    +0.076 C 
BRANCH  76  77
ATOM     77  CG  HIS A   5       0.064 -48.346 -10.305  0.00  0.00    +0.082 A 
ATOM     78  CD2 HIS A   5      -0.052 -49.641  -9.943  0.00  0.00    +0.115 A 
ATOM     79  NE2 HIS A   5       1.190 -50.201 -10.052  0.00  0.00    -0.221 NA
ATOM     80  CE1 HIS A   5       2.042 -49.266 -10.432  0.00  0.00    +0.199 A 
ATOM     81  ND1 HIS A   5       1.393 -48.126 -10.597  0.00  0.00    -0.227 NA
ENDBRANCH  76  77
ENDBRANCH   1  76
TORSDOF 33
REMARK  Name = ../refined-set-2016/4wn5/4wn5_pocket.pdb
REMARK  242 active torsions:
REMARK  status: ('A' for Active; 'I' for Inactive)
REMARK    1  A    between atoms: _1  and  _5
REMARK    2  A    between atoms: _5  and  _6
REMARK    3  A    between atoms: _5  and  _8
REMARK    4  A    between atoms: _8  and  _9
REMARK    5  A    between atoms: _9  and  _10
REMARK    6  A    between atoms: _10  and  _11
REMARK    7  A    between atoms: _20  and  _22
REMARK    8  A    between atoms: _22  and  _23
REMARK    9  A    between atoms: _25  and  _27
REMARK   10  A    between atoms: _27  and  _28
REMARK   11  A    between atoms: _31  and  _33
REMARK   12  A    between atoms: _33  and  _34
REMARK   13  A    between atoms: _33  and  _36
REMARK   14  A    between atoms: _36  and  _37
REMARK   15  A    between atoms: _43  and  _45
REMARK   16  A    between atoms: _45  and  _46
REMARK   17  A    between atoms: _45  and  _48
REMARK   18  A    between atoms: _48  and  _49
REMARK   19  A    between atoms: _52  and  _54
REMARK   20  A    between atoms: _54  and  _55
REMARK   21  A    between atoms: _54  and  _57
REMARK   22  A    between atoms: _57  and  _58
REMARK   23  A    between atoms: _60  and  _62
REMARK   24  A    between atoms: _62  and  _63
REMARK   25  A    between atoms: _62  and  _65
REMARK   26  A    between atoms: _65  and  _66
REMARK   27  A    between atoms: _66  and  _67
REMARK   28  A    between atoms: _67  and  _68
REMARK   29  A    between atoms: _77  and  _79
REMARK   30  A    between atoms: _79  and  _80
REMARK   31  A    between atoms: _79  and  _82
REMARK   32  A    between atoms: _82  and  _83
REMARK   33  A    between atoms: _88  and  _90
REMARK   34  A    between atoms: _90  and  _91
REMARK   35  A    between atoms: _90  and  _93
REMARK   36  A    between atoms: _93  and  _94
REMARK   37  A    between atoms: _94  and  _95
REMARK   38  A    between atoms: _97  and  _99
REMARK   39  A    between atoms: _99  and  _100
REMARK   40  A    between atoms: _99  and  _102
REMARK   41  A    between atoms: _102  and  _103
REMARK   42  A    between atoms: _109  and  _111
REMARK   43  A    between atoms: _111  and  _112
REMARK   44  A    between atoms: _111  and  _114
REMARK   45  A    between atoms: _114  and  _115
REMARK   46  A    between atoms: _120  and  _121
REMARK   47  A    between atoms: _123  and  _125
REMARK   48  A    between atoms: _125  and  _126
REMARK   49  A    between atoms: _125  and  _128
REMARK   50  A    between atoms: _130  and  _132
REMARK   51  A    between atoms: _132  and  _133
REMARK   52  A    between atoms: _132  and  _135
REMARK   53  A    between atoms: _135  and  _136
REMARK   54  A    between atoms: _139  and  _141
REMARK   55  A    between atoms: _141  and  _142
REMARK   56  A    between atoms: _141  and  _144
REMARK   57  A    between atoms: _144  and  _145
REMARK   58  A    between atoms: _145  and  _146
REMARK   59  A    between atoms: _146  and  _147
REMARK   60  A    between atoms: _156  and  _158
REMARK   61  A    between atoms: _158  and  _159
REMARK   62  A    between atoms: _158  and  _161
REMARK   63  A    between atoms: _161  and  _162
REMARK   64  A    between atoms: _165  and  _167
REMARK   65  A    between atoms: _167  and  _168
REMARK   66  A    between atoms: _167  and  _170
REMARK   67  A    between atoms: _170  and  _171
REMARK   68  A    between atoms: _171  and  _172
REMARK   69  A    between atoms: _175  and  _177
REMARK   70  A    between atoms: _177  and  _178
REMARK   71  A    between atoms: _177  and  _180
REMARK   72  A    between atoms: _183  and  _185
REMARK   73  A    between atoms: _185  and  _186
REMARK   74  A    between atoms: _189  and  _191
REMARK   75  A    between atoms: _191  and  _192
REMARK   76  A    between atoms: _191  and  _194
REMARK   77  A    between atoms: _194  and  _195
REMARK   78  A    between atoms: _200  and  _201
REMARK   79  A    between atoms: _203  and  _205
REMARK   80  A    between atoms: _205  and  _206
REMARK   81  A    between atoms: _205  and  _208
REMARK   82  A    between atoms: _208  and  _209
REMARK   83  A    between atoms: _212  and  _214
REMARK   84  A    between atoms: _214  and  _215
REMARK   85  A    between atoms: _214  and  _217
REMARK   86  A    between atoms: _217  and  _218
REMARK   87  A    between atoms: _220  and  _222
REMARK   88  A    between atoms: _222  and  _223
REMARK   89  A    between atoms: _226  and  _228
REMARK   90  A    between atoms: _228  and  _229
REMARK   91  A    between atoms: _228  and  _231
REMARK   92  A    between atoms: _231  and  _232
REMARK   93  A    between atoms: _237  and  _238
REMARK   94  A    between atoms: _240  and  _242
REMARK   95  A    between atoms: _242  and  _243
REMARK   96  A    between atoms: _242  and  _245
REMARK   97  A    between atoms: _245  and  _246
REMARK   98  A    between atoms: _251  and  _252
REMARK   99  A    between atoms: _254  and  _256
REMARK  100  A    between atoms: _256  and  _257
REMARK  101  A    between atoms: _256  and  _259
REMARK  102  A    between atoms: _259  and  _260
REMARK  103  A    between atoms: _263  and  _265
REMARK  104  A    between atoms: _265  and  _266
REMARK  105  A    between atoms: _269  and  _271
REMARK  106  A    between atoms: _271  and  _272
REMARK  107  A    between atoms: _271  and  _274
REMARK  108  A    between atoms: _277  and  _279
REMARK  109  A    between atoms: _279  and  _280
REMARK  110  A    between atoms: _279  and  _282
REMARK  111  A    between atoms: _282  and  _283
REMARK  112  A    between atoms: _285  and  _287
REMARK  113  A    between atoms: _287  and  _288
REMARK  114  A    between atoms: _287  and  _290
REMARK  115  A    between atoms: _290  and  _291
REMARK  116  A    between atoms: _291  and  _292
REMARK  117  A    between atoms: _292  and  _293
REMARK  118  A    between atoms: _293  and  _294
REMARK  119  A    between atoms: _298  and  _300
REMARK  120  A    between atoms: _300  and  _301
REMARK  121  A    between atoms: _300  and  _303
REMARK  122  A    between atoms: _303  and  _304
REMARK  123  A    between atoms: _306  and  _308
REMARK  124  A    between atoms: _308  and  _309
REMARK  125  A    between atoms: _308  and  _311
REMARK  126  A    between atoms: _311  and  _312
REMARK  127  A    between atoms: _315  and  _317
REMARK  128  A    between atoms: _317  and  _318
REMARK  129  A    between atoms: _317  and  _320
REMARK  130  A    between atoms: _320  and  _321
REMARK  131  A    between atoms: _326  and  _328
REMARK  132  A    between atoms: _328  and  _329
REMARK  133  A    between atoms: _328  and  _331
REMARK  134  A    between atoms: _331  and  _332
REMARK  135  A    between atoms: _335  and  _337
REMARK  136  A    between atoms: _337  and  _338
REMARK  137  A    between atoms: _337  and  _340
REMARK  138  A    between atoms: _340  and  _341
REMARK  139  A    between atoms: _344  and  _346
REMARK  140  A    between atoms: _346  and  _347
REMARK  141  A    between atoms: _346  and  _349
REMARK  142  A    between atoms: _349  and  _350
REMARK  143  A    between atoms: _353  and  _355
REMARK  144  A    between atoms: _355  and  _356
REMARK  145  A    between atoms: _355  and  _358
REMARK  146  A    between atoms: _358  and  _359
REMARK  147  A    between atoms: _359  and  _360
REMARK  148  A    between atoms: _365  and  _367
REMARK  149  A    between atoms: _367  and  _368
REMARK  150  A    between atoms: _371  and  _373
REMARK  151  A    between atoms: _373  and  _374
REMARK  152  A    between atoms: _373  and  _376
REMARK  153  A    between atoms: _379  and  _381
REMARK  154  A    between atoms: _381  and  _382
REMARK  155  A    between atoms: _381  and  _384
REMARK  156  A    between atoms: _384  and  _385
REMARK  157  A    between atoms: _388  and  _390
REMARK  158  A    between atoms: _390  and  _391
REMARK  159  A    between atoms: _393  and  _395
REMARK  160  A    between atoms: _395  and  _396
REMARK  161  A    between atoms: _395  and  _398
REMARK  162  A    between atoms: _398  and  _399
REMARK  163  A    between atoms: _404  and  _405
REMARK  164  A    between atoms: _407  and  _409
REMARK  165  A    between atoms: _409  and  _410
REMARK  166  A    between atoms: _409  and  _412
REMARK  167  A    between atoms: _412  and  _413
REMARK  168  A    between atoms: _413  and  _414
REMARK  169  A    between atoms: _414  and  _415
REMARK  170  A    between atoms: _424  and  _426
REMARK  171  A    between atoms: _426  and  _427
REMARK  172  A    between atoms: _426  and  _429
REMARK  173  A    between atoms: _429  and  _430
REMARK  174  A    between atoms: _436  and  _438
REMARK  175  A    between atoms: _438  and  _439
REMARK  176  A    between atoms: _438  and  _441
REMARK  177  A    between atoms: _441  and  _442
REMARK  178  A    between atoms: _445  and  _447
REMARK  179  A    between atoms: _447  and  _448
REMARK  180  A    between atoms: _447  and  _450
REMARK  181  A    between atoms: _450  and  _451
REMARK  182  A    between atoms: _454  and  _456
REMARK  183  A    between atoms: _456  and  _457
REMARK  184  A    between atoms: _456  and  _459
REMARK  185  A    between atoms: _459  and  _460
REMARK  186  A    between atoms: _470  and  _472
REMARK  187  A    between atoms: _472  and  _473
REMARK  188  A    between atoms: _472  and  _475
REMARK  189  A    between atoms: _475  and  _476
REMARK  190  A    between atoms: _479  and  _481
REMARK  191  A    between atoms: _481  and  _482
REMARK  192  A    between atoms: _481  and  _484
REMARK  193  A    between atoms: _484  and  _485
REMARK  194  A    between atoms: _485  and  _486
REMARK  195  A    between atoms: _491  and  _493
REMARK  196  A    between atoms: _493  and  _494
REMARK  197  A    between atoms: _493  and  _496
REMARK  198  A    between atoms: _496  and  _497
REMARK  199  A    between atoms: _500  and  _502
REMARK  200  A    between atoms: _502  and  _503
REMARK  201  A    between atoms: _502  and  _505
REMARK  202  A    between atoms: _505  and  _506
REMARK  203  A    between atoms: _506  and  _507
REMARK  204  A    between atoms: _512  and  _514
REMARK  205  A    between atoms: _514  and  _515
REMARK  206  A    between atoms: _518  and  _520
REMARK  207  A    between atoms: _520  and  _521
REMARK  208  A    between atoms: _520  and  _523
REMARK  209  A    between atoms: _523  and  _524
REMARK  210  A    between atoms: _527  and  _529
REMARK  211  A    between atoms: _529  and  _530
REMARK  212  A    between atoms: _529  and  _532
REMARK  213  A    between atoms: _532  and  _533
REMARK  214  A    between atoms: _536  and  _538
REMARK  215  A    between atoms: _538  and  _539
REMARK  216  A    between atoms: _538  and  _541
REMARK  217  A    between atoms: _544  and  _546
REMARK  218  A    between atoms: _546  and  _547
REMARK  219  A    between atoms: _546  and  _549
REMARK  220  A    between atoms: _551  and  _553
REMARK  221  A    between atoms: _553  and  _554
REMARK  222  A    between atoms: _553  and  _556
REMARK  223  A    between atoms: _559  and  _561
REMARK  224  A    between atoms: _561  and  _562
REMARK  225  A    between atoms: _561  and  _564
REMARK  226  A    between atoms: _564  and  _565
REMARK  227  A    between atoms: _570  and  _572
REMARK  228  A    between atoms: _572  and  _573
REMARK  229  A    between atoms: _572  and  _575
REMARK  230  A    between atoms: _575  and  _576
REMARK  231  A    between atoms: _582  and  _584
REMARK  232  A    between atoms: _584  and  _585
REMARK  233  A    between atoms: _584  and  _587
REMARK  234  A    between atoms: _587  and  _588
REMARK  235  A    between atoms: _591  and  _593
REMARK  236  A    between atoms: _593  and  _594
REMARK  237  A    between atoms: _593  and  _596
REMARK  238  A    between atoms: _596  and  _597
REMARK  239  A    between atoms: _600  and  _602
REMARK  240  A    between atoms: _602  and  _603
REMARK  241  A    between atoms: _602  and  _605
REMARK  242  A    between atoms: _605  and  _606
REMARK                            x       y       z     vdW  Elec       q    Type
REMARK                         _______ _______ _______ _____ _____    ______ ____
ROOT
ATOM      1  O   HOH     1     -11.219 -45.625  -3.772  0.00  0.00    +0.000 OA
ENDROOT
TORSDOF 0
REMARK  Name = ../refined-set-2016/4wn5/4wn5_pocket.pdb
REMARK  242 active torsions:
REMARK  status: ('A' for Active; 'I' for Inactive)
REMARK    1  A    between atoms: _1  and  _5
REMARK    2  A    between atoms: _5  and  _6
REMARK    3  A    between atoms: _5  and  _8
REMARK    4  A    between atoms: _8  and  _9
REMARK    5  A    between atoms: _9  and  _10
REMARK    6  A    between atoms: _10  and  _11
REMARK    7  A    between atoms: _20  and  _22
REMARK    8  A    between atoms: _22  and  _23
REMARK    9  A    between atoms: _25  and  _27
REMARK   10  A    between atoms: _27  and  _28
REMARK   11  A    between atoms: _31  and  _33
REMARK   12  A    between atoms: _33  and  _34
REMARK   13  A    between atoms: _33  and  _36
REMARK   14  A    between atoms: _36  and  _37
REMARK   15  A    between atoms: _43  and  _45
REMARK   16  A    between atoms: _45  and  _46
REMARK   17  A    between atoms: _45  and  _48
REMARK   18  A    between atoms: _48  and  _49
REMARK   19  A    between atoms: _52  and  _54
REMARK   20  A    between atoms: _54  and  _55
REMARK   21  A    between atoms: _54  and  _57
REMARK   22  A    between atoms: _57  and  _58
REMARK   23  A    between atoms: _60  and  _62
REMARK   24  A    between atoms: _62  and  _63
REMARK   25  A    between atoms: _62  and  _65
REMARK   26  A    between atoms: _65  and  _66
REMARK   27  A    between atoms: _66  and  _67
REMARK   28  A    between atoms: _67  and  _68
REMARK   29  A    between atoms: _77  and  _79
REMARK   30  A    between atoms: _79  and  _80
REMARK   31  A    between atoms: _79  and  _82
REMARK   32  A    between atoms: _82  and  _83
REMARK   33  A    between atoms: _88  and  _90
REMARK   34  A    between atoms: _90  and  _91
REMARK   35  A    between atoms: _90  and  _93
REMARK   36  A    between atoms: _93  and  _94
REMARK   37  A    between atoms: _94  and  _95
REMARK   38  A    between atoms: _97  and  _99
REMARK   39  A    between atoms: _99  and  _100
REMARK   40  A    between atoms: _99  and  _102
REMARK   41  A    between atoms: _102  and  _103
REMARK   42  A    between atoms: _109  and  _111
REMARK   43  A    between atoms: _111  and  _112
REMARK   44  A    between atoms: _111  and  _114
REMARK   45  A    between atoms: _114  and  _115
REMARK   46  A    between atoms: _120  and  _121
REMARK   47  A    between atoms: _123  and  _125
REMARK   48  A    between atoms: _125  and  _126
REMARK   49  A    between atoms: _125  and  _128
REMARK   50  A    between atoms: _130  and  _132
REMARK   51  A    between atoms: _132  and  _133
REMARK   52  A    between atoms: _132  and  _135
REMARK   53  A    between atoms: _135  and  _136
REMARK   54  A    between atoms: _139  and  _141
REMARK   55  A    between atoms: _141  and  _142
REMARK   56  A    between atoms: _141  and  _144
REMARK   57  A    between atoms: _144  and  _145
REMARK   58  A    between atoms: _145  and  _146
REMARK   59  A    between atoms: _146  and  _147
REMARK   60  A    between atoms: _156  and  _158
REMARK   61  A    between atoms: _158  and  _159
REMARK   62  A    between atoms: _158  and  _161
REMARK   63  A    between atoms: _161  and  _162
REMARK   64  A    between atoms: _165  and  _167
REMARK   65  A    between atoms: _167  and  _168
REMARK   66  A    between atoms: _167  and  _170
REMARK   67  A    between atoms: _170  and  _171
REMARK   68  A    between atoms: _171  and  _172
REMARK   69  A    between atoms: _175  and  _177
REMARK   70  A    between atoms: _177  and  _178
REMARK   71  A    between atoms: _177  and  _180
REMARK   72  A    between atoms: _183  and  _185
REMARK   73  A    between atoms: _185  and  _186
REMARK   74  A    between atoms: _189  and  _191
REMARK   75  A    between atoms: _191  and  _192
REMARK   76  A    between atoms: _191  and  _194
REMARK   77  A    between atoms: _194  and  _195
REMARK   78  A    between atoms: _200  and  _201
REMARK   79  A    between atoms: _203  and  _205
REMARK   80  A    between atoms: _205  and  _206
REMARK   81  A    between atoms: _205  and  _208
REMARK   82  A    between atoms: _208  and  _209
REMARK   83  A    between atoms: _212  and  _214
REMARK   84  A    between atoms: _214  and  _215
REMARK   85  A    between atoms: _214  and  _217
REMARK   86  A    between atoms: _217  and  _218
REMARK   87  A    between atoms: _220  and  _222
REMARK   88  A    between atoms: _222  and  _223
REMARK   89  A    between atoms: _226  and  _228
REMARK   90  A    between atoms: _228  and  _229
REMARK   91  A    between atoms: _228  and  _231
REMARK   92  A    between atoms: _231  and  _232
REMARK   93  A    between atoms: _237  and  _238
REMARK   94  A    between atoms: _240  and  _242
REMARK   95  A    between atoms: _242  and  _243
REMARK   96  A    between atoms: _242  and  _245
REMARK   97  A    between atoms: _245  and  _246
REMARK   98  A    between atoms: _251  and  _252
REMARK   99  A    between atoms: _254  and  _256
REMARK  100  A    between atoms: _256  and  _257
REMARK  101  A    between atoms: _256  and  _259
REMARK  102  A    between atoms: _259  and  _260
REMARK  103  A    between atoms: _263  and  _265
REMARK  104  A    between atoms: _265  and  _266
REMARK  105  A    between atoms: _269  and  _271
REMARK  106  A    between atoms: _271  and  _272
REMARK  107  A    between atoms: _271  and  _274
REMARK  108  A    between atoms: _277  and  _279
REMARK  109  A    between atoms: _279  and  _280
REMARK  110  A    between atoms: _279  and  _282
REMARK  111  A    between atoms: _282  and  _283
REMARK  112  A    between atoms: _285  and  _287
REMARK  113  A    between atoms: _287  and  _288
REMARK  114  A    between atoms: _287  and  _290
REMARK  115  A    between atoms: _290  and  _291
REMARK  116  A    between atoms: _291  and  _292
REMARK  117  A    between atoms: _292  and  _293
REMARK  118  A    between atoms: _293  and  _294
REMARK  119  A    between atoms: _298  and  _300
REMARK  120  A    between atoms: _300  and  _301
REMARK  121  A    between atoms: _300  and  _303
REMARK  122  A    between atoms: _303  and  _304
REMARK  123  A    between atoms: _306  and  _308
REMARK  124  A    between atoms: _308  and  _309
REMARK  125  A    between atoms: _308  and  _311
REMARK  126  A    between atoms: _311  and  _312
REMARK  127  A    between atoms: _315  and  _317
REMARK  128  A    between atoms: _317  and  _318
REMARK  129  A    between atoms: _317  and  _320
REMARK  130  A    between atoms: _320  and  _321
REMARK  131  A    between atoms: _326  and  _328
REMARK  132  A    between atoms: _328  and  _329
REMARK  133  A    between atoms: _328  and  _331
REMARK  134  A    between atoms: _331  and  _332
REMARK  135  A    between atoms: _335  and  _337
REMARK  136  A    between atoms: _337  and  _338
REMARK  137  A    between atoms: _337  and  _340
REMARK  138  A    between atoms: _340  and  _341
REMARK  139  A    between atoms: _344  and  _346
REMARK  140  A    between atoms: _346  and  _347
REMARK  141  A    between atoms: _346  and  _349
REMARK  142  A    between atoms: _349  and  _350
REMARK  143  A    between atoms: _353  and  _355
REMARK  144  A    between atoms: _355  and  _356
REMARK  145  A    between atoms: _355  and  _358
REMARK  146  A    between atoms: _358  and  _359
REMARK  147  A    between atoms: _359  and  _360
REMARK  148  A    between atoms: _365  and  _367
REMARK  149  A    between atoms: _367  and  _368
REMARK  150  A    between atoms: _371  and  _373
REMARK  151  A    between atoms: _373  and  _374
REMARK  152  A    between atoms: _373  and  _376
REMARK  153  A    between atoms: _379  and  _381
REMARK  154  A    between atoms: _381  and  _382
REMARK  155  A    between atoms: _381  and  _384
REMARK  156  A    between atoms: _384  and  _385
REMARK  157  A    between atoms: _388  and  _390
REMARK  158  A    between atoms: _390  and  _391
REMARK  159  A    between atoms: _393  and  _395
REMARK  160  A    between atoms: _395  and  _396
REMARK  161  A    between atoms: _395  and  _398
REMARK  162  A    between atoms: _398  and  _399
REMARK  163  A    between atoms: _404  and  _405
REMARK  164  A    between atoms: _407  and  _409
REMARK  165  A    between atoms: _409  and  _410
REMARK  166  A    between atoms: _409  and  _412
REMARK  167  A    between atoms: _412  and  _413
REMARK  168  A    between atoms: _413  and  _414
REMARK  169  A    between atoms: _414  and  _415
REMARK  170  A    between atoms: _424  and  _426
REMARK  171  A    between atoms: _426  and  _427
REMARK  172  A    between atoms: _426  and  _429
REMARK  173  A    between atoms: _429  and  _430
REMARK  174  A    between atoms: _436  and  _438
REMARK  175  A    between atoms: _438  and  _439
REMARK  176  A    between atoms: _438  and  _441
REMARK  177  A    between atoms: _441  and  _442
REMARK  178  A    between atoms: _445  and  _447
REMARK  179  A    between atoms: _447  and  _448
REMARK  180  A    between atoms: _447  and  _450
REMARK  181  A    between atoms: _450  and  _451
REMARK  182  A    between atoms: _454  and  _456
REMARK  183  A    between atoms: _456  and  _457
REMARK  184  A    between atoms: _456  and  _459
REMARK  185  A    between atoms: _459  and  _460
REMARK  186  A    between atoms: _470  and  _472
REMARK  187  A    between atoms: _472  and  _473
REMARK  188  A    between atoms: _472  and  _475
REMARK  189  A    between atoms: _475  and  _476
REMARK  190  A    between atoms: _479  and  _481
REMARK  191  A    between atoms: _481  and  _482
REMARK  192  A    between atoms: _481  and  _484
REMARK  193  A    between atoms: _484  and  _485
REMARK  194  A    between atoms: _485  and  _486
REMARK  195  A    between atoms: _491  and  _493
REMARK  196  A    between atoms: _493  and  _494
REMARK  197  A    between atoms: _493  and  _496
REMARK  198  A    between atoms: _496  and  _497
REMARK  199  A    between atoms: _500  and  _502
REMARK  200  A    between atoms: _502  and  _503
REMARK  201  A    between atoms: _502  and  _505
REMARK  202  A    between atoms: _505  and  _506
REMARK  203  A    between atoms: _506  and  _507
REMARK  204  A    between atoms: _512  and  _514
REMARK  205  A    between atoms: _514  and  _515
REMARK  206  A    between atoms: _518  and  _520
REMARK  207  A    between atoms: _520  and  _521
REMARK  208  A    between atoms: _520  and  _523
REMARK  209  A    between atoms: _523  and  _524
REMARK  210  A    between atoms: _527  and  _529
REMARK  211  A    between atoms: _529  and  _530
REMARK  212  A    between atoms: _529  and  _532
REMARK  213  A    between atoms: _532  and  _533
REMARK  214  A    between atoms: _536  and  _538
REMARK  215  A    between atoms: _538  and  _539
REMARK  216  A    between atoms: _538  and  _541
REMARK  217  A    between atoms: _544  and  _546
REMARK  218  A    between atoms: _546  and  _547
REMARK  219  A    between atoms: _546  and  _549
REMARK  220  A    between atoms: _551  and  _553
REMARK  221  A    between atoms: _553  and  _554
REMARK  222  A    between atoms: _553  and  _556
REMARK  223  A    between atoms: _559  and  _561
REMARK  224  A    between atoms: _561  and  _562
REMARK  225  A    between atoms: _561  and  _564
REMARK  226  A    between atoms: _564  and  _565
REMARK  227  A    between atoms: _570  and  _572
REMARK  228  A    between atoms: _572  and  _573
REMARK  229  A    between atoms: _572  and  _575
REMARK  230  A    between atoms: _575  and  _576
REMARK  231  A    between atoms: _582  and  _584
REMARK  232  A    between atoms: _584  and  _585
REMARK  233  A    between atoms: _584  and  _587
REMARK  234  A    between atoms: _587  and  _588
REMARK  235  A    between atoms: _591  and  _593
REMARK  236  A    between atoms: _593  and  _594
REMARK  237  A    between atoms: _593  and  _596
REMARK  238  A    between atoms: _596  and  _597
REMARK  239  A    between atoms: _600  and  _602
REMARK  240  A    between atoms: _602  and  _603
REMARK  241  A    between atoms: _602  and  _605
REMARK  242  A    between atoms: _605  and  _606
REMARK                            x       y       z     vdW  Elec       q    Type
REMARK                         _______ _______ _______ _____ _____    ______ ____
ROOT
ATOM      1  O   HOH     1      -5.087 -45.643  -7.058  0.00  0.00    +0.000 OA
ENDROOT
TORSDOF 0
REMARK  Name = ../refined-set-2016/4wn5/4wn5_pocket.pdb
REMARK  242 active torsions:
REMARK  status: ('A' for Active; 'I' for Inactive)
REMARK    1  A    between atoms: _1  and  _5
REMARK    2  A    between atoms: _5  and  _6
REMARK    3  A    between atoms: _5  and  _8
REMARK    4  A    between atoms: _8  and  _9
REMARK    5  A    between atoms: _9  and  _10
REMARK    6  A    between atoms: _10  and  _11
REMARK    7  A    between atoms: _20  and  _22
REMARK    8  A    between atoms: _22  and  _23
REMARK    9  A    between atoms: _25  and  _27
REMARK   10  A    between atoms: _27  and  _28
REMARK   11  A    between atoms: _31  and  _33
REMARK   12  A    between atoms: _33  and  _34
REMARK   13  A    between atoms: _33  and  _36
REMARK   14  A    between atoms: _36  and  _37
REMARK   15  A    between atoms: _43  and  _45
REMARK   16  A    between atoms: _45  and  _46
REMARK   17  A    between atoms: _45  and  _48
REMARK   18  A    between atoms: _48  and  _49
REMARK   19  A    between atoms: _52  and  _54
REMARK   20  A    between atoms: _54  and  _55
REMARK   21  A    between atoms: _54  and  _57
REMARK   22  A    between atoms: _57  and  _58
REMARK   23  A    between atoms: _60  and  _62
REMARK   24  A    between atoms: _62  and  _63
REMARK   25  A    between atoms: _62  and  _65
REMARK   26  A    between atoms: _65  and  _66
REMARK   27  A    between atoms: _66  and  _67
REMARK   28  A    between atoms: _67  and  _68
REMARK   29  A    between atoms: _77  and  _79
REMARK   30  A    between atoms: _79  and  _80
REMARK   31  A    between atoms: _79  and  _82
REMARK   32  A    between atoms: _82  and  _83
REMARK   33  A    between atoms: _88  and  _90
REMARK   34  A    between atoms: _90  and  _91
REMARK   35  A    between atoms: _90  and  _93
REMARK   36  A    between atoms: _93  and  _94
REMARK   37  A    between atoms: _94  and  _95
REMARK   38  A    between atoms: _97  and  _99
REMARK   39  A    between atoms: _99  and  _100
REMARK   40  A    between atoms: _99  and  _102
REMARK   41  A    between atoms: _102  and  _103
REMARK   42  A    between atoms: _109  and  _111
REMARK   43  A    between atoms: _111  and  _112
REMARK   44  A    between atoms: _111  and  _114
REMARK   45  A    between atoms: _114  and  _115
REMARK   46  A    between atoms: _120  and  _121
REMARK   47  A    between atoms: _123  and  _125
REMARK   48  A    between atoms: _125  and  _126
REMARK   49  A    between atoms: _125  and  _128
REMARK   50  A    between atoms: _130  and  _132
REMARK   51  A    between atoms: _132  and  _133
REMARK   52  A    between atoms: _132  and  _135
REMARK   53  A    between atoms: _135  and  _136
REMARK   54  A    between atoms: _139  and  _141
REMARK   55  A    between atoms: _141  and  _142
REMARK   56  A    between atoms: _141  and  _144
REMARK   57  A    between atoms: _144  and  _145
REMARK   58  A    between atoms: _145  and  _146
REMARK   59  A    between atoms: _146  and  _147
REMARK   60  A    between atoms: _156  and  _158
REMARK   61  A    between atoms: _158  and  _159
REMARK   62  A    between atoms: _158  and  _161
REMARK   63  A    between atoms: _161  and  _162
REMARK   64  A    between atoms: _165  and  _167
REMARK   65  A    between atoms: _167  and  _168
REMARK   66  A    between atoms: _167  and  _170
REMARK   67  A    between atoms: _170  and  _171
REMARK   68  A    between atoms: _171  and  _172
REMARK   69  A    between atoms: _175  and  _177
REMARK   70  A    between atoms: _177  and  _178
REMARK   71  A    between atoms: _177  and  _180
REMARK   72  A    between atoms: _183  and  _185
REMARK   73  A    between atoms: _185  and  _186
REMARK   74  A    between atoms: _189  and  _191
REMARK   75  A    between atoms: _191  and  _192
REMARK   76  A    between atoms: _191  and  _194
REMARK   77  A    between atoms: _194  and  _195
REMARK   78  A    between atoms: _200  and  _201
REMARK   79  A    between atoms: _203  and  _205
REMARK   80  A    between atoms: _205  and  _206
REMARK   81  A    between atoms: _205  and  _208
REMARK   82  A    between atoms: _208  and  _209
REMARK   83  A    between atoms: _212  and  _214
REMARK   84  A    between atoms: _214  and  _215
REMARK   85  A    between atoms: _214  and  _217
REMARK   86  A    between atoms: _217  and  _218
REMARK   87  A    between atoms: _220  and  _222
REMARK   88  A    between atoms: _222  and  _223
REMARK   89  A    between atoms: _226  and  _228
REMARK   90  A    between atoms: _228  and  _229
REMARK   91  A    between atoms: _228  and  _231
REMARK   92  A    between atoms: _231  and  _232
REMARK   93  A    between atoms: _237  and  _238
REMARK   94  A    between atoms: _240  and  _242
REMARK   95  A    between atoms: _242  and  _243
REMARK   96  A    between atoms: _242  and  _245
REMARK   97  A    between atoms: _245  and  _246
REMARK   98  A    between atoms: _251  and  _252
REMARK   99  A    between atoms: _254  and  _256
REMARK  100  A    between atoms: _256  and  _257
REMARK  101  A    between atoms: _256  and  _259
REMARK  102  A    between atoms: _259  and  _260
REMARK  103  A    between atoms: _263  and  _265
REMARK  104  A    between atoms: _265  and  _266
REMARK  105  A    between atoms: _269  and  _271
REMARK  106  A    between atoms: _271  and  _272
REMARK  107  A    between atoms: _271  and  _274
REMARK  108  A    between atoms: _277  and  _279
REMARK  109  A    between atoms: _279  and  _280
REMARK  110  A    between atoms: _279  and  _282
REMARK  111  A    between atoms: _282  and  _283
REMARK  112  A    between atoms: _285  and  _287
REMARK  113  A    between atoms: _287  and  _288
REMARK  114  A    between atoms: _287  and  _290
REMARK  115  A    between atoms: _290  and  _291
REMARK  116  A    between atoms: _291  and  _292
REMARK  117  A    between atoms: _292  and  _293
REMARK  118  A    between atoms: _293  and  _294
REMARK  119  A    between atoms: _298  and  _300
REMARK  120  A    between atoms: _300  and  _301
REMARK  121  A    between atoms: _300  and  _303
REMARK  122  A    between atoms: _303  and  _304
REMARK  123  A    between atoms: _306  and  _308
REMARK  124  A    between atoms: _308  and  _309
REMARK  125  A    between atoms: _308  and  _311
REMARK  126  A    between atoms: _311  and  _312
REMARK  127  A    between atoms: _315  and  _317
REMARK  128  A    between atoms: _317  and  _318
REMARK  129  A    between atoms: _317  and  _320
REMARK  130  A    between atoms: _320  and  _321
REMARK  131  A    between atoms: _326  and  _328
REMARK  132  A    between atoms: _328  and  _329
REMARK  133  A    between atoms: _328  and  _331
REMARK  134  A    between atoms: _331  and  _332
REMARK  135  A    between atoms: _335  and  _337
REMARK  136  A    between atoms: _337  and  _338
REMARK  137  A    between atoms: _337  and  _340
REMARK  138  A    between atoms: _340  and  _341
REMARK  139  A    between atoms: _344  and  _346
REMARK  140  A    between atoms: _346  and  _347
REMARK  141  A    between atoms: _346  and  _349
REMARK  142  A    between atoms: _349  and  _350
REMARK  143  A    between atoms: _353  and  _355
REMARK  144  A    between atoms: _355  and  _356
REMARK  145  A    between atoms: _355  and  _358
REMARK  146  A    between atoms: _358  and  _359
REMARK  147  A    between atoms: _359  and  _360
REMARK  148  A    between atoms: _365  and  _367
REMARK  149  A    between atoms: _367  and  _368
REMARK  150  A    between atoms: _371  and  _373
REMARK  151  A    between atoms: _373  and  _374
REMARK  152  A    between atoms: _373  and  _376
REMARK  153  A    between atoms: _379  and  _381
REMARK  154  A    between atoms: _381  and  _382
REMARK  155  A    between atoms: _381  and  _384
REMARK  156  A    between atoms: _384  and  _385
REMARK  157  A    between atoms: _388  and  _390
REMARK  158  A    between atoms: _390  and  _391
REMARK  159  A    between atoms: _393  and  _395
REMARK  160  A    between atoms: _395  and  _396
REMARK  161  A    between atoms: _395  and  _398
REMARK  162  A    between atoms: _398  and  _399
REMARK  163  A    between atoms: _404  and  _405
REMARK  164  A    between atoms: _407  and  _409
REMARK  165  A    between atoms: _409  and  _410
REMARK  166  A    between atoms: _409  and  _412
REMARK  167  A    between atoms: _412  and  _413
REMARK  168  A    between atoms: _413  and  _414
REMARK  169  A    between atoms: _414  and  _415
REMARK  170  A    between atoms: _424  and  _426
REMARK  171  A    between atoms: _426  and  _427
REMARK  172  A    between atoms: _426  and  _429
REMARK  173  A    between atoms: _429  and  _430
REMARK  174  A    between atoms: _436  and  _438
REMARK  175  A    between atoms: _438  and  _439
REMARK  176  A    between atoms: _438  and  _441
REMARK  177  A    between atoms: _441  and  _442
REMARK  178  A    between atoms: _445  and  _447
REMARK  179  A    between atoms: _447  and  _448
REMARK  180  A    between atoms: _447  and  _450
REMARK  181  A    between atoms: _450  and  _451
REMARK  182  A    between atoms: _454  and  _456
REMARK  183  A    between atoms: _456  and  _457
REMARK  184  A    between atoms: _456  and  _459
REMARK  185  A    between atoms: _459  and  _460
REMARK  186  A    between atoms: _470  and  _472
REMARK  187  A    between atoms: _472  and  _473
REMARK  188  A    between atoms: _472  and  _475
REMARK  189  A    between atoms: _475  and  _476
REMARK  190  A    between atoms: _479  and  _481
REMARK  191  A    between atoms: _481  and  _482
REMARK  192  A    between atoms: _481  and  _484
REMARK  193  A    between atoms: _484  and  _485
REMARK  194  A    between atoms: _485  and  _486
REMARK  195  A    between atoms: _491  and  _493
REMARK  196  A    between atoms: _493  and  _494
REMARK  197  A    between atoms: _493  and  _496
REMARK  198  A    between atoms: _496  and  _497
REMARK  199  A    between atoms: _500  and  _502
REMARK  200  A    between atoms: _502  and  _503
REMARK  201  A    between atoms: _502  and  _505
REMARK  202  A    between atoms: _505  and  _506
REMARK  203  A    between atoms: _506  and  _507
REMARK  204  A    between atoms: _512  and  _514
REMARK  205  A    between atoms: _514  and  _515
REMARK  206  A    between atoms: _518  and  _520
REMARK  207  A    between atoms: _520  and  _521
REMARK  208  A    between atoms: _520  and  _523
REMARK  209  A    between atoms: _523  and  _524
REMARK  210  A    between atoms: _527  and  _529
REMARK  211  A    between atoms: _529  and  _530
REMARK  212  A    between atoms: _529  and  _532
REMARK  213  A    between atoms: _532  and  _533
REMARK  214  A    between atoms: _536  and  _538
REMARK  215  A    between atoms: _538  and  _539
REMARK  216  A    between atoms: _538  and  _541
REMARK  217  A    between atoms: _544  and  _546
REMARK  218  A    between atoms: _546  and  _547
REMARK  219  A    between atoms: _546  and  _549
REMARK  220  A    between atoms: _551  and  _553
REMARK  221  A    between atoms: _553  and  _554
REMARK  222  A    between atoms: _553  and  _556
REMARK  223  A    between atoms: _559  and  _561
REMARK  224  A    between atoms: _561  and  _562
REMARK  225  A    between atoms: _561  and  _564
REMARK  226  A    between atoms: _564  and  _565
REMARK  227  A    between atoms: _570  and  _572
REMARK  228  A    between atoms: _572  and  _573
REMARK  229  A    between atoms: _572  and  _575
REMARK  230  A    between atoms: _575  and  _576
REMARK  231  A    between atoms: _582  and  _584
REMARK  232  A    between atoms: _584  and  _585
REMARK  233  A    between atoms: _584  and  _587
REMARK  234  A    between atoms: _587  and  _588
REMARK  235  A    between atoms: _591  and  _593
REMARK  236  A    between atoms: _593  and  _594
REMARK  237  A    between atoms: _593  and  _596
REMARK  238  A    between atoms: _596  and  _597
REMARK  239  A    between atoms: _600  and  _602
REMARK  240  A    between atoms: _602  and  _603
REMARK  241  A    between atoms: _602  and  _605
REMARK  242  A    between atoms: _605  and  _606
REMARK                            x       y       z     vdW  Elec       q    Type
REMARK                         _______ _______ _______ _____ _____    ______ ____
ROOT
ATOM      1  O   HOH     1      -8.064 -46.385  -7.648  0.00  0.00    +0.000 OA
ENDROOT
TORSDOF 0
REMARK  Name = ../refined-set-2016/4wn5/4wn5_pocket.pdb
REMARK  242 active torsions:
REMARK  status: ('A' for Active; 'I' for Inactive)
REMARK    1  A    between atoms: _1  and  _5
REMARK    2  A    between atoms: _5  and  _6
REMARK    3  A    between atoms: _5  and  _8
REMARK    4  A    between atoms: _8  and  _9
REMARK    5  A    between atoms: _9  and  _10
REMARK    6  A    between atoms: _10  and  _11
REMARK    7  A    between atoms: _20  and  _22
REMARK    8  A    between atoms: _22  and  _23
REMARK    9  A    between atoms: _25  and  _27
REMARK   10  A    between atoms: _27  and  _28
REMARK   11  A    between atoms: _31  and  _33
REMARK   12  A    between atoms: _33  and  _34
REMARK   13  A    between atoms: _33  and  _36
REMARK   14  A    between atoms: _36  and  _37
REMARK   15  A    between atoms: _43  and  _45
REMARK   16  A    between atoms: _45  and  _46
REMARK   17  A    between atoms: _45  and  _48
REMARK   18  A    between atoms: _48  and  _49
REMARK   19  A    between atoms: _52  and  _54
REMARK   20  A    between atoms: _54  and  _55
REMARK   21  A    between atoms: _54  and  _57
REMARK   22  A    between atoms: _57  and  _58
REMARK   23  A    between atoms: _60  and  _62
REMARK   24  A    between atoms: _62  and  _63
REMARK   25  A    between atoms: _62  and  _65
REMARK   26  A    between atoms: _65  and  _66
REMARK   27  A    between atoms: _66  and  _67
REMARK   28  A    between atoms: _67  and  _68
REMARK   29  A    between atoms: _77  and  _79
REMARK   30  A    between atoms: _79  and  _80
REMARK   31  A    between atoms: _79  and  _82
REMARK   32  A    between atoms: _82  and  _83
REMARK   33  A    between atoms: _88  and  _90
REMARK   34  A    between atoms: _90  and  _91
REMARK   35  A    between atoms: _90  and  _93
REMARK   36  A    between atoms: _93  and  _94
REMARK   37  A    between atoms: _94  and  _95
REMARK   38  A    between atoms: _97  and  _99
REMARK   39  A    between atoms: _99  and  _100
REMARK   40  A    between atoms: _99  and  _102
REMARK   41  A    between atoms: _102  and  _103
REMARK   42  A    between atoms: _109  and  _111
REMARK   43  A    between atoms: _111  and  _112
REMARK   44  A    between atoms: _111  and  _114
REMARK   45  A    between atoms: _114  and  _115
REMARK   46  A    between atoms: _120  and  _121
REMARK   47  A    between atoms: _123  and  _125
REMARK   48  A    between atoms: _125  and  _126
REMARK   49  A    between atoms: _125  and  _128
REMARK   50  A    between atoms: _130  and  _132
REMARK   51  A    between atoms: _132  and  _133
REMARK   52  A    between atoms: _132  and  _135
REMARK   53  A    between atoms: _135  and  _136
REMARK   54  A    between atoms: _139  and  _141
REMARK   55  A    between atoms: _141  and  _142
REMARK   56  A    between atoms: _141  and  _144
REMARK   57  A    between atoms: _144  and  _145
REMARK   58  A    between atoms: _145  and  _146
REMARK   59  A    between atoms: _146  and  _147
REMARK   60  A    between atoms: _156  and  _158
REMARK   61  A    between atoms: _158  and  _159
REMARK   62  A    between atoms: _158  and  _161
REMARK   63  A    between atoms: _161  and  _162
REMARK   64  A    between atoms: _165  and  _167
REMARK   65  A    between atoms: _167  and  _168
REMARK   66  A    between atoms: _167  and  _170
REMARK   67  A    between atoms: _170  and  _171
REMARK   68  A    between atoms: _171  and  _172
REMARK   69  A    between atoms: _175  and  _177
REMARK   70  A    between atoms: _177  and  _178
REMARK   71  A    between atoms: _177  and  _180
REMARK   72  A    between atoms: _183  and  _185
REMARK   73  A    between atoms: _185  and  _186
REMARK   74  A    between atoms: _189  and  _191
REMARK   75  A    between atoms: _191  and  _192
REMARK   76  A    between atoms: _191  and  _194
REMARK   77  A    between atoms: _194  and  _195
REMARK   78  A    between atoms: _200  and  _201
REMARK   79  A    between atoms: _203  and  _205
REMARK   80  A    between atoms: _205  and  _206
REMARK   81  A    between atoms: _205  and  _208
REMARK   82  A    between atoms: _208  and  _209
REMARK   83  A    between atoms: _212  and  _214
REMARK   84  A    between atoms: _214  and  _215
REMARK   85  A    between atoms: _214  and  _217
REMARK   86  A    between atoms: _217  and  _218
REMARK   87  A    between atoms: _220  and  _222
REMARK   88  A    between atoms: _222  and  _223
REMARK   89  A    between atoms: _226  and  _228
REMARK   90  A    between atoms: _228  and  _229
REMARK   91  A    between atoms: _228  and  _231
REMARK   92  A    between atoms: _231  and  _232
REMARK   93  A    between atoms: _237  and  _238
REMARK   94  A    between atoms: _240  and  _242
REMARK   95  A    between atoms: _242  and  _243
REMARK   96  A    between atoms: _242  and  _245
REMARK   97  A    between atoms: _245  and  _246
REMARK   98  A    between atoms: _251  and  _252
REMARK   99  A    between atoms: _254  and  _256
REMARK  100  A    between atoms: _256  and  _257
REMARK  101  A    between atoms: _256  and  _259
REMARK  102  A    between atoms: _259  and  _260
REMARK  103  A    between atoms: _263  and  _265
REMARK  104  A    between atoms: _265  and  _266
REMARK  105  A    between atoms: _269  and  _271
REMARK  106  A    between atoms: _271  and  _272
REMARK  107  A    between atoms: _271  and  _274
REMARK  108  A    between atoms: _277  and  _279
REMARK  109  A    between atoms: _279  and  _280
REMARK  110  A    between atoms: _279  and  _282
REMARK  111  A    between atoms: _282  and  _283
REMARK  112  A    between atoms: _285  and  _287
REMARK  113  A    between atoms: _287  and  _288
REMARK  114  A    between atoms: _287  and  _290
REMARK  115  A    between atoms: _290  and  _291
REMARK  116  A    between atoms: _291  and  _292
REMARK  117  A    between atoms: _292  and  _293
REMARK  118  A    between atoms: _293  and  _294
REMARK  119  A    between atoms: _298  and  _300
REMARK  120  A    between atoms: _300  and  _301
REMARK  121  A    between atoms: _300  and  _303
REMARK  122  A    between atoms: _303  and  _304
REMARK  123  A    between atoms: _306  and  _308
REMARK  124  A    between atoms: _308  and  _309
REMARK  125  A    between atoms: _308  and  _311
REMARK  126  A    between atoms: _311  and  _312
REMARK  127  A    between atoms: _315  and  _317
REMARK  128  A    between atoms: _317  and  _318
REMARK  129  A    between atoms: _317  and  _320
REMARK  130  A    between atoms: _320  and  _321
REMARK  131  A    between atoms: _326  and  _328
REMARK  132  A    between atoms: _328  and  _329
REMARK  133  A    between atoms: _328  and  _331
REMARK  134  A    between atoms: _331  and  _332
REMARK  135  A    between atoms: _335  and  _337
REMARK  136  A    between atoms: _337  and  _338
REMARK  137  A    between atoms: _337  and  _340
REMARK  138  A    between atoms: _340  and  _341
REMARK  139  A    between atoms: _344  and  _346
REMARK  140  A    between atoms: _346  and  _347
REMARK  141  A    between atoms: _346  and  _349
REMARK  142  A    between atoms: _349  and  _350
REMARK  143  A    between atoms: _353  and  _355
REMARK  144  A    between atoms: _355  and  _356
REMARK  145  A    between atoms: _355  and  _358
REMARK  146  A    between atoms: _358  and  _359
REMARK  147  A    between atoms: _359  and  _360
REMARK  148  A    between atoms: _365  and  _367
REMARK  149  A    between atoms: _367  and  _368
REMARK  150  A    between atoms: _371  and  _373
REMARK  151  A    between atoms: _373  and  _374
REMARK  152  A    between atoms: _373  and  _376
REMARK  153  A    between atoms: _379  and  _381
REMARK  154  A    between atoms: _381  and  _382
REMARK  155  A    between atoms: _381  and  _384
REMARK  156  A    between atoms: _384  and  _385
REMARK  157  A    between atoms: _388  and  _390
REMARK  158  A    between atoms: _390  and  _391
REMARK  159  A    between atoms: _393  and  _395
REMARK  160  A    between atoms: _395  and  _396
REMARK  161  A    between atoms: _395  and  _398
REMARK  162  A    between atoms: _398  and  _399
REMARK  163  A    between atoms: _404  and  _405
REMARK  164  A    between atoms: _407  and  _409
REMARK  165  A    between atoms: _409  and  _410
REMARK  166  A    between atoms: _409  and  _412
REMARK  167  A    between atoms: _412  and  _413
REMARK  168  A    between atoms: _413  and  _414
REMARK  169  A    between atoms: _414  and  _415
REMARK  170  A    between atoms: _424  and  _426
REMARK  171  A    between atoms: _426  and  _427
REMARK  172  A    between atoms: _426  and  _429
REMARK  173  A    between atoms: _429  and  _430
REMARK  174  A    between atoms: _436  and  _438
REMARK  175  A    between atoms: _438  and  _439
REMARK  176  A    between atoms: _438  and  _441
REMARK  177  A    between atoms: _441  and  _442
REMARK  178  A    between atoms: _445  and  _447
REMARK  179  A    between atoms: _447  and  _448
REMARK  180  A    between atoms: _447  and  _450
REMARK  181  A    between atoms: _450  and  _451
REMARK  182  A    between atoms: _454  and  _456
REMARK  183  A    between atoms: _456  and  _457
REMARK  184  A    between atoms: _456  and  _459
REMARK  185  A    between atoms: _459  and  _460
REMARK  186  A    between atoms: _470  and  _472
REMARK  187  A    between atoms: _472  and  _473
REMARK  188  A    between atoms: _472  and  _475
REMARK  189  A    between atoms: _475  and  _476
REMARK  190  A    between atoms: _479  and  _481
REMARK  191  A    between atoms: _481  and  _482
REMARK  192  A    between atoms: _481  and  _484
REMARK  193  A    between atoms: _484  and  _485
REMARK  194  A    between atoms: _485  and  _486
REMARK  195  A    between atoms: _491  and  _493
REMARK  196  A    between atoms: _493  and  _494
REMARK  197  A    between atoms: _493  and  _496
REMARK  198  A    between atoms: _496  and  _497
REMARK  199  A    between atoms: _500  and  _502
REMARK  200  A    between atoms: _502  and  _503
REMARK  201  A    between atoms: _502  and  _505
REMARK  202  A    between atoms: _505  and  _506
REMARK  203  A    between atoms: _506  and  _507
REMARK  204  A    between atoms: _512  and  _514
REMARK  205  A    between atoms: _514  and  _515
REMARK  206  A    between atoms: _518  and  _520
REMARK  207  A    between atoms: _520  and  _521
REMARK  208  A    between atoms: _520  and  _523
REMARK  209  A    between atoms: _523  and  _524
REMARK  210  A    between atoms: _527  and  _529
REMARK  211  A    between atoms: _529  and  _530
REMARK  212  A    between atoms: _529  and  _532
REMARK  213  A    between atoms: _532  and  _533
REMARK  214  A    between atoms: _536  and  _538
REMARK  215  A    between atoms: _538  and  _539
REMARK  216  A    between atoms: _538  and  _541
REMARK  217  A    between atoms: _544  and  _546
REMARK  218  A    between atoms: _546  and  _547
REMARK  219  A    between atoms: _546  and  _549
REMARK  220  A    between atoms: _551  and  _553
REMARK  221  A    between atoms: _553  and  _554
REMARK  222  A    between atoms: _553  and  _556
REMARK  223  A    between atoms: _559  and  _561
REMARK  224  A    between atoms: _561  and  _562
REMARK  225  A    between atoms: _561  and  _564
REMARK  226  A    between atoms: _564  and  _565
REMARK  227  A    between atoms: _570  and  _572
REMARK  228  A    between atoms: _572  and  _573
REMARK  229  A    between atoms: _572  and  _575
REMARK  230  A    between atoms: _575  and  _576
REMARK  231  A    between atoms: _582  and  _584
REMARK  232  A    between atoms: _584  and  _585
REMARK  233  A    between atoms: _584  and  _587
REMARK  234  A    between atoms: _587  and  _588
REMARK  235  A    between atoms: _591  and  _593
REMARK  236  A    between atoms: _593  and  _594
REMARK  237  A    between atoms: _593  and  _596
REMARK  238  A    between atoms: _596  and  _597
REMARK  239  A    between atoms: _600  and  _602
REMARK  240  A    between atoms: _602  and  _603
REMARK  241  A    between atoms: _602  and  _605
REMARK  242  A    between atoms: _605  and  _606
REMARK                            x       y       z     vdW  Elec       q    Type
REMARK                         _______ _______ _______ _____ _____    ______ ____
ROOT
ATOM      1  O   HOH     1     -11.223 -48.511 -13.072  0.00  0.00    +0.000 OA
ENDROOT
TORSDOF 0
REMARK  Name = ../refined-set-2016/4wn5/4wn5_pocket.pdb
REMARK  242 active torsions:
REMARK  status: ('A' for Active; 'I' for Inactive)
REMARK    1  A    between atoms: _1  and  _5
REMARK    2  A    between atoms: _5  and  _6
REMARK    3  A    between atoms: _5  and  _8
REMARK    4  A    between atoms: _8  and  _9
REMARK    5  A    between atoms: _9  and  _10
REMARK    6  A    between atoms: _10  and  _11
REMARK    7  A    between atoms: _20  and  _22
REMARK    8  A    between atoms: _22  and  _23
REMARK    9  A    between atoms: _25  and  _27
REMARK   10  A    between atoms: _27  and  _28
REMARK   11  A    between atoms: _31  and  _33
REMARK   12  A    between atoms: _33  and  _34
REMARK   13  A    between atoms: _33  and  _36
REMARK   14  A    between atoms: _36  and  _37
REMARK   15  A    between atoms: _43  and  _45
REMARK   16  A    between atoms: _45  and  _46
REMARK   17  A    between atoms: _45  and  _48
REMARK   18  A    between atoms: _48  and  _49
REMARK   19  A    between atoms: _52  and  _54
REMARK   20  A    between atoms: _54  and  _55
REMARK   21  A    between atoms: _54  and  _57
REMARK   22  A    between atoms: _57  and  _58
REMARK   23  A    between atoms: _60  and  _62
REMARK   24  A    between atoms: _62  and  _63
REMARK   25  A    between atoms: _62  and  _65
REMARK   26  A    between atoms: _65  and  _66
REMARK   27  A    between atoms: _66  and  _67
REMARK   28  A    between atoms: _67  and  _68
REMARK   29  A    between atoms: _77  and  _79
REMARK   30  A    between atoms: _79  and  _80
REMARK   31  A    between atoms: _79  and  _82
REMARK   32  A    between atoms: _82  and  _83
REMARK   33  A    between atoms: _88  and  _90
REMARK   34  A    between atoms: _90  and  _91
REMARK   35  A    between atoms: _90  and  _93
REMARK   36  A    between atoms: _93  and  _94
REMARK   37  A    between atoms: _94  and  _95
REMARK   38  A    between atoms: _97  and  _99
REMARK   39  A    between atoms: _99  and  _100
REMARK   40  A    between atoms: _99  and  _102
REMARK   41  A    between atoms: _102  and  _103
REMARK   42  A    between atoms: _109  and  _111
REMARK   43  A    between atoms: _111  and  _112
REMARK   44  A    between atoms: _111  and  _114
REMARK   45  A    between atoms: _114  and  _115
REMARK   46  A    between atoms: _120  and  _121
REMARK   47  A    between atoms: _123  and  _125
REMARK   48  A    between atoms: _125  and  _126
REMARK   49  A    between atoms: _125  and  _128
REMARK   50  A    between atoms: _130  and  _132
REMARK   51  A    between atoms: _132  and  _133
REMARK   52  A    between atoms: _132  and  _135
REMARK   53  A    between atoms: _135  and  _136
REMARK   54  A    between atoms: _139  and  _141
REMARK   55  A    between atoms: _141  and  _142
REMARK   56  A    between atoms: _141  and  _144
REMARK   57  A    between atoms: _144  and  _145
REMARK   58  A    between atoms: _145  and  _146
REMARK   59  A    between atoms: _146  and  _147
REMARK   60  A    between atoms: _156  and  _158
REMARK   61  A    between atoms: _158  and  _159
REMARK   62  A    between atoms: _158  and  _161
REMARK   63  A    between atoms: _161  and  _162
REMARK   64  A    between atoms: _165  and  _167
REMARK   65  A    between atoms: _167  and  _168
REMARK   66  A    between atoms: _167  and  _170
REMARK   67  A    between atoms: _170  and  _171
REMARK   68  A    between atoms: _171  and  _172
REMARK   69  A    between atoms: _175  and  _177
REMARK   70  A    between atoms: _177  and  _178
REMARK   71  A    between atoms: _177  and  _180
REMARK   72  A    between atoms: _183  and  _185
REMARK   73  A    between atoms: _185  and  _186
REMARK   74  A    between atoms: _189  and  _191
REMARK   75  A    between atoms: _191  and  _192
REMARK   76  A    between atoms: _191  and  _194
REMARK   77  A    between atoms: _194  and  _195
REMARK   78  A    between atoms: _200  and  _201
REMARK   79  A    between atoms: _203  and  _205
REMARK   80  A    between atoms: _205  and  _206
REMARK   81  A    between atoms: _205  and  _208
REMARK   82  A    between atoms: _208  and  _209
REMARK   83  A    between atoms: _212  and  _214
REMARK   84  A    between atoms: _214  and  _215
REMARK   85  A    between atoms: _214  and  _217
REMARK   86  A    between atoms: _217  and  _218
REMARK   87  A    between atoms: _220  and  _222
REMARK   88  A    between atoms: _222  and  _223
REMARK   89  A    between atoms: _226  and  _228
REMARK   90  A    between atoms: _228  and  _229
REMARK   91  A    between atoms: _228  and  _231
REMARK   92  A    between atoms: _231  and  _232
REMARK   93  A    between atoms: _237  and  _238
REMARK   94  A    between atoms: _240  and  _242
REMARK   95  A    between atoms: _242  and  _243
REMARK   96  A    between atoms: _242  and  _245
REMARK   97  A    between atoms: _245  and  _246
REMARK   98  A    between atoms: _251  and  _252
REMARK   99  A    between atoms: _254  and  _256
REMARK  100  A    between atoms: _256  and  _257
REMARK  101  A    between atoms: _256  and  _259
REMARK  102  A    between atoms: _259  and  _260
REMARK  103  A    between atoms: _263  and  _265
REMARK  104  A    between atoms: _265  and  _266
REMARK  105  A    between atoms: _269  and  _271
REMARK  106  A    between atoms: _271  and  _272
REMARK  107  A    between atoms: _271  and  _274
REMARK  108  A    between atoms: _277  and  _279
REMARK  109  A    between atoms: _279  and  _280
REMARK  110  A    between atoms: _279  and  _282
REMARK  111  A    between atoms: _282  and  _283
REMARK  112  A    between atoms: _285  and  _287
REMARK  113  A    between atoms: _287  and  _288
REMARK  114  A    between atoms: _287  and  _290
REMARK  115  A    between atoms: _290  and  _291
REMARK  116  A    between atoms: _291  and  _292
REMARK  117  A    between atoms: _292  and  _293
REMARK  118  A    between atoms: _293  and  _294
REMARK  119  A    between atoms: _298  and  _300
REMARK  120  A    between atoms: _300  and  _301
REMARK  121  A    between atoms: _300  and  _303
REMARK  122  A    between atoms: _303  and  _304
REMARK  123  A    between atoms: _306  and  _308
REMARK  124  A    between atoms: _308  and  _309
REMARK  125  A    between atoms: _308  and  _311
REMARK  126  A    between atoms: _311  and  _312
REMARK  127  A    between atoms: _315  and  _317
REMARK  128  A    between atoms: _317  and  _318
REMARK  129  A    between atoms: _317  and  _320
REMARK  130  A    between atoms: _320  and  _321
REMARK  131  A    between atoms: _326  and  _328
REMARK  132  A    between atoms: _328  and  _329
REMARK  133  A    between atoms: _328  and  _331
REMARK  134  A    between atoms: _331  and  _332
REMARK  135  A    between atoms: _335  and  _337
REMARK  136  A    between atoms: _337  and  _338
REMARK  137  A    between atoms: _337  and  _340
REMARK  138  A    between atoms: _340  and  _341
REMARK  139  A    between atoms: _344  and  _346
REMARK  140  A    between atoms: _346  and  _347
REMARK  141  A    between atoms: _346  and  _349
REMARK  142  A    between atoms: _349  and  _350
REMARK  143  A    between atoms: _353  and  _355
REMARK  144  A    between atoms: _355  and  _356
REMARK  145  A    between atoms: _355  and  _358
REMARK  146  A    between atoms: _358  and  _359
REMARK  147  A    between atoms: _359  and  _360
REMARK  148  A    between atoms: _365  and  _367
REMARK  149  A    between atoms: _367  and  _368
REMARK  150  A    between atoms: _371  and  _373
REMARK  151  A    between atoms: _373  and  _374
REMARK  152  A    between atoms: _373  and  _376
REMARK  153  A    between atoms: _379  and  _381
REMARK  154  A    between atoms: _381  and  _382
REMARK  155  A    between atoms: _381  and  _384
REMARK  156  A    between atoms: _384  and  _385
REMARK  157  A    between atoms: _388  and  _390
REMARK  158  A    between atoms: _390  and  _391
REMARK  159  A    between atoms: _393  and  _395
REMARK  160  A    between atoms: _395  and  _396
REMARK  161  A    between atoms: _395  and  _398
REMARK  162  A    between atoms: _398  and  _399
REMARK  163  A    between atoms: _404  and  _405
REMARK  164  A    between atoms: _407  and  _409
REMARK  165  A    between atoms: _409  and  _410
REMARK  166  A    between atoms: _409  and  _412
REMARK  167  A    between atoms: _412  and  _413
REMARK  168  A    between atoms: _413  and  _414
REMARK  169  A    between atoms: _414  and  _415
REMARK  170  A    between atoms: _424  and  _426
REMARK  171  A    between atoms: _426  and  _427
REMARK  172  A    between atoms: _426  and  _429
REMARK  173  A    between atoms: _429  and  _430
REMARK  174  A    between atoms: _436  and  _438
REMARK  175  A    between atoms: _438  and  _439
REMARK  176  A    between atoms: _438  and  _441
REMARK  177  A    between atoms: _441  and  _442
REMARK  178  A    between atoms: _445  and  _447
REMARK  179  A    between atoms: _447  and  _448
REMARK  180  A    between atoms: _447  and  _450
REMARK  181  A    between atoms: _450  and  _451
REMARK  182  A    between atoms: _454  and  _456
REMARK  183  A    between atoms: _456  and  _457
REMARK  184  A    between atoms: _456  and  _459
REMARK  185  A    between atoms: _459  and  _460
REMARK  186  A    between atoms: _470  and  _472
REMARK  187  A    between atoms: _472  and  _473
REMARK  188  A    between atoms: _472  and  _475
REMARK  189  A    between atoms: _475  and  _476
REMARK  190  A    between atoms: _479  and  _481
REMARK  191  A    between atoms: _481  and  _482
REMARK  192  A    between atoms: _481  and  _484
REMARK  193  A    between atoms: _484  and  _485
REMARK  194  A    between atoms: _485  and  _486
REMARK  195  A    between atoms: _491  and  _493
REMARK  196  A    between atoms: _493  and  _494
REMARK  197  A    between atoms: _493  and  _496
REMARK  198  A    between atoms: _496  and  _497
REMARK  199  A    between atoms: _500  and  _502
REMARK  200  A    between atoms: _502  and  _503
REMARK  201  A    between atoms: _502  and  _505
REMARK  202  A    between atoms: _505  and  _506
REMARK  203  A    between atoms: _506  and  _507
REMARK  204  A    between atoms: _512  and  _514
REMARK  205  A    between atoms: _514  and  _515
REMARK  206  A    between atoms: _518  and  _520
REMARK  207  A    between atoms: _520  and  _521
REMARK  208  A    between atoms: _520  and  _523
REMARK  209  A    between atoms: _523  and  _524
REMARK  210  A    between atoms: _527  and  _529
REMARK  211  A    between atoms: _529  and  _530
REMARK  212  A    between atoms: _529  and  _532
REMARK  213  A    between atoms: _532  and  _533
REMARK  214  A    between atoms: _536  and  _538
REMARK  215  A    between atoms: _538  and  _539
REMARK  216  A    between atoms: _538  and  _541
REMARK  217  A    between atoms: _544  and  _546
REMARK  218  A    between atoms: _546  and  _547
REMARK  219  A    between atoms: _546  and  _549
REMARK  220  A    between atoms: _551  and  _553
REMARK  221  A    between atoms: _553  and  _554
REMARK  222  A    between atoms: _553  and  _556
REMARK  223  A    between atoms: _559  and  _561
REMARK  224  A    between atoms: _561  and  _562
REMARK  225  A    between atoms: _561  and  _564
REMARK  226  A    between atoms: _564  and  _565
REMARK  227  A    between atoms: _570  and  _572
REMARK  228  A    between atoms: _572  and  _573
REMARK  229  A    between atoms: _572  and  _575
REMARK  230  A    between atoms: _575  and  _576
REMARK  231  A    between atoms: _582  and  _584
REMARK  232  A    between atoms: _584  and  _585
REMARK  233  A    between atoms: _584  and  _587
REMARK  234  A    between atoms: _587  and  _588
REMARK  235  A    between atoms: _591  and  _593
REMARK  236  A    between atoms: _593  and  _594
REMARK  237  A    between atoms: _593  and  _596
REMARK  238  A    between atoms: _596  and  _597
REMARK  239  A    between atoms: _600  and  _602
REMARK  240  A    between atoms: _602  and  _603
REMARK  241  A    between atoms: _602  and  _605
REMARK  242  A    between atoms: _605  and  _606
REMARK                            x       y       z     vdW  Elec       q    Type
REMARK                         _______ _______ _______ _____ _____    ______ ____
ROOT
ATOM      1  O   HOH     1      -4.580 -43.988  -3.318  0.00  0.00    +0.000 OA
ENDROOT
TORSDOF 0
REMARK  Name = ../refined-set-2016/4wn5/4wn5_pocket.pdb
REMARK  242 active torsions:
REMARK  status: ('A' for Active; 'I' for Inactive)
REMARK    1  A    between atoms: _1  and  _5
REMARK    2  A    between atoms: _5  and  _6
REMARK    3  A    between atoms: _5  and  _8
REMARK    4  A    between atoms: _8  and  _9
REMARK    5  A    between atoms: _9  and  _10
REMARK    6  A    between atoms: _10  and  _11
REMARK    7  A    between atoms: _20  and  _22
REMARK    8  A    between atoms: _22  and  _23
REMARK    9  A    between atoms: _25  and  _27
REMARK   10  A    between atoms: _27  and  _28
REMARK   11  A    between atoms: _31  and  _33
REMARK   12  A    between atoms: _33  and  _34
REMARK   13  A    between atoms: _33  and  _36
REMARK   14  A    between atoms: _36  and  _37
REMARK   15  A    between atoms: _43  and  _45
REMARK   16  A    between atoms: _45  and  _46
REMARK   17  A    between atoms: _45  and  _48
REMARK   18  A    between atoms: _48  and  _49
REMARK   19  A    between atoms: _52  and  _54
REMARK   20  A    between atoms: _54  and  _55
REMARK   21  A    between atoms: _54  and  _57
REMARK   22  A    between atoms: _57  and  _58
REMARK   23  A    between atoms: _60  and  _62
REMARK   24  A    between atoms: _62  and  _63
REMARK   25  A    between atoms: _62  and  _65
REMARK   26  A    between atoms: _65  and  _66
REMARK   27  A    between atoms: _66  and  _67
REMARK   28  A    between atoms: _67  and  _68
REMARK   29  A    between atoms: _77  and  _79
REMARK   30  A    between atoms: _79  and  _80
REMARK   31  A    between atoms: _79  and  _82
REMARK   32  A    between atoms: _82  and  _83
REMARK   33  A    between atoms: _88  and  _90
REMARK   34  A    between atoms: _90  and  _91
REMARK   35  A    between atoms: _90  and  _93
REMARK   36  A    between atoms: _93  and  _94
REMARK   37  A    between atoms: _94  and  _95
REMARK   38  A    between atoms: _97  and  _99
REMARK   39  A    between atoms: _99  and  _100
REMARK   40  A    between atoms: _99  and  _102
REMARK   41  A    between atoms: _102  and  _103
REMARK   42  A    between atoms: _109  and  _111
REMARK   43  A    between atoms: _111  and  _112
REMARK   44  A    between atoms: _111  and  _114
REMARK   45  A    between atoms: _114  and  _115
REMARK   46  A    between atoms: _120  and  _121
REMARK   47  A    between atoms: _123  and  _125
REMARK   48  A    between atoms: _125  and  _126
REMARK   49  A    between atoms: _125  and  _128
REMARK   50  A    between atoms: _130  and  _132
REMARK   51  A    between atoms: _132  and  _133
REMARK   52  A    between atoms: _132  and  _135
REMARK   53  A    between atoms: _135  and  _136
REMARK   54  A    between atoms: _139  and  _141
REMARK   55  A    between atoms: _141  and  _142
REMARK   56  A    between atoms: _141  and  _144
REMARK   57  A    between atoms: _144  and  _145
REMARK   58  A    between atoms: _145  and  _146
REMARK   59  A    between atoms: _146  and  _147
REMARK   60  A    between atoms: _156  and  _158
REMARK   61  A    between atoms: _158  and  _159
REMARK   62  A    between atoms: _158  and  _161
REMARK   63  A    between atoms: _161  and  _162
REMARK   64  A    between atoms: _165  and  _167
REMARK   65  A    between atoms: _167  and  _168
REMARK   66  A    between atoms: _167  and  _170
REMARK   67  A    between atoms: _170  and  _171
REMARK   68  A    between atoms: _171  and  _172
REMARK   69  A    between atoms: _175  and  _177
REMARK   70  A    between atoms: _177  and  _178
REMARK   71  A    between atoms: _177  and  _180
REMARK   72  A    between atoms: _183  and  _185
REMARK   73  A    between atoms: _185  and  _186
REMARK   74  A    between atoms: _189  and  _191
REMARK   75  A    between atoms: _191  and  _192
REMARK   76  A    between atoms: _191  and  _194
REMARK   77  A    between atoms: _194  and  _195
REMARK   78  A    between atoms: _200  and  _201
REMARK   79  A    between atoms: _203  and  _205
REMARK   80  A    between atoms: _205  and  _206
REMARK   81  A    between atoms: _205  and  _208
REMARK   82  A    between atoms: _208  and  _209
REMARK   83  A    between atoms: _212  and  _214
REMARK   84  A    between atoms: _214  and  _215
REMARK   85  A    between atoms: _214  and  _217
REMARK   86  A    between atoms: _217  and  _218
REMARK   87  A    between atoms: _220  and  _222
REMARK   88  A    between atoms: _222  and  _223
REMARK   89  A    between atoms: _226  and  _228
REMARK   90  A    between atoms: _228  and  _229
REMARK   91  A    between atoms: _228  and  _231
REMARK   92  A    between atoms: _231  and  _232
REMARK   93  A    between atoms: _237  and  _238
REMARK   94  A    between atoms: _240  and  _242
REMARK   95  A    between atoms: _242  and  _243
REMARK   96  A    between atoms: _242  and  _245
REMARK   97  A    between atoms: _245  and  _246
REMARK   98  A    between atoms: _251  and  _252
REMARK   99  A    between atoms: _254  and  _256
REMARK  100  A    between atoms: _256  and  _257
REMARK  101  A    between atoms: _256  and  _259
REMARK  102  A    between atoms: _259  and  _260
REMARK  103  A    between atoms: _263  and  _265
REMARK  104  A    between atoms: _265  and  _266
REMARK  105  A    between atoms: _269  and  _271
REMARK  106  A    between atoms: _271  and  _272
REMARK  107  A    between atoms: _271  and  _274
REMARK  108  A    between atoms: _277  and  _279
REMARK  109  A    between atoms: _279  and  _280
REMARK  110  A    between atoms: _279  and  _282
REMARK  111  A    between atoms: _282  and  _283
REMARK  112  A    between atoms: _285  and  _287
REMARK  113  A    between atoms: _287  and  _288
REMARK  114  A    between atoms: _287  and  _290
REMARK  115  A    between atoms: _290  and  _291
REMARK  116  A    between atoms: _291  and  _292
REMARK  117  A    between atoms: _292  and  _293
REMARK  118  A    between atoms: _293  and  _294
REMARK  119  A    between atoms: _298  and  _300
REMARK  120  A    between atoms: _300  and  _301
REMARK  121  A    between atoms: _300  and  _303
REMARK  122  A    between atoms: _303  and  _304
REMARK  123  A    between atoms: _306  and  _308
REMARK  124  A    between atoms: _308  and  _309
REMARK  125  A    between atoms: _308  and  _311
REMARK  126  A    between atoms: _311  and  _312
REMARK  127  A    between atoms: _315  and  _317
REMARK  128  A    between atoms: _317  and  _318
REMARK  129  A    between atoms: _317  and  _320
REMARK  130  A    between atoms: _320  and  _321
REMARK  131  A    between atoms: _326  and  _328
REMARK  132  A    between atoms: _328  and  _329
REMARK  133  A    between atoms: _328  and  _331
REMARK  134  A    between atoms: _331  and  _332
REMARK  135  A    between atoms: _335  and  _337
REMARK  136  A    between atoms: _337  and  _338
REMARK  137  A    between atoms: _337  and  _340
REMARK  138  A    between atoms: _340  and  _341
REMARK  139  A    between atoms: _344  and  _346
REMARK  140  A    between atoms: _346  and  _347
REMARK  141  A    between atoms: _346  and  _349
REMARK  142  A    between atoms: _349  and  _350
REMARK  143  A    between atoms: _353  and  _355
REMARK  144  A    between atoms: _355  and  _356
REMARK  145  A    between atoms: _355  and  _358
REMARK  146  A    between atoms: _358  and  _359
REMARK  147  A    between atoms: _359  and  _360
REMARK  148  A    between atoms: _365  and  _367
REMARK  149  A    between atoms: _367  and  _368
REMARK  150  A    between atoms: _371  and  _373
REMARK  151  A    between atoms: _373  and  _374
REMARK  152  A    between atoms: _373  and  _376
REMARK  153  A    between atoms: _379  and  _381
REMARK  154  A    between atoms: _381  and  _382
REMARK  155  A    between atoms: _381  and  _384
REMARK  156  A    between atoms: _384  and  _385
REMARK  157  A    between atoms: _388  and  _390
REMARK  158  A    between atoms: _390  and  _391
REMARK  159  A    between atoms: _393  and  _395
REMARK  160  A    between atoms: _395  and  _396
REMARK  161  A    between atoms: _395  and  _398
REMARK  162  A    between atoms: _398  and  _399
REMARK  163  A    between atoms: _404  and  _405
REMARK  164  A    between atoms: _407  and  _409
REMARK  165  A    between atoms: _409  and  _410
REMARK  166  A    between atoms: _409  and  _412
REMARK  167  A    between atoms: _412  and  _413
REMARK  168  A    between atoms: _413  and  _414
REMARK  169  A    between atoms: _414  and  _415
REMARK  170  A    between atoms: _424  and  _426
REMARK  171  A    between atoms: _426  and  _427
REMARK  172  A    between atoms: _426  and  _429
REMARK  173  A    between atoms: _429  and  _430
REMARK  174  A    between atoms: _436  and  _438
REMARK  175  A    between atoms: _438  and  _439
REMARK  176  A    between atoms: _438  and  _441
REMARK  177  A    between atoms: _441  and  _442
REMARK  178  A    between atoms: _445  and  _447
REMARK  179  A    between atoms: _447  and  _448
REMARK  180  A    between atoms: _447  and  _450
REMARK  181  A    between atoms: _450  and  _451
REMARK  182  A    between atoms: _454  and  _456
REMARK  183  A    between atoms: _456  and  _457
REMARK  184  A    between atoms: _456  and  _459
REMARK  185  A    between atoms: _459  and  _460
REMARK  186  A    between atoms: _470  and  _472
REMARK  187  A    between atoms: _472  and  _473
REMARK  188  A    between atoms: _472  and  _475
REMARK  189  A    between atoms: _475  and  _476
REMARK  190  A    between atoms: _479  and  _481
REMARK  191  A    between atoms: _481  and  _482
REMARK  192  A    between atoms: _481  and  _484
REMARK  193  A    between atoms: _484  and  _485
REMARK  194  A    between atoms: _485  and  _486
REMARK  195  A    between atoms: _491  and  _493
REMARK  196  A    between atoms: _493  and  _494
REMARK  197  A    between atoms: _493  and  _496
REMARK  198  A    between atoms: _496  and  _497
REMARK  199  A    between atoms: _500  and  _502
REMARK  200  A    between atoms: _502  and  _503
REMARK  201  A    between atoms: _502  and  _505
REMARK  202  A    between atoms: _505  and  _506
REMARK  203  A    between atoms: _506  and  _507
REMARK  204  A    between atoms: _512  and  _514
REMARK  205  A    between atoms: _514  and  _515
REMARK  206  A    between atoms: _518  and  _520
REMARK  207  A    between atoms: _520  and  _521
REMARK  208  A    between atoms: _520  and  _523
REMARK  209  A    between atoms: _523  and  _524
REMARK  210  A    between atoms: _527  and  _529
REMARK  211  A    between atoms: _529  and  _530
REMARK  212  A    between atoms: _529  and  _532
REMARK  213  A    between atoms: _532  and  _533
REMARK  214  A    between atoms: _536  and  _538
REMARK  215  A    between atoms: _538  and  _539
REMARK  216  A    between atoms: _538  and  _541
REMARK  217  A    between atoms: _544  and  _546
REMARK  218  A    between atoms: _546  and  _547
REMARK  219  A    between atoms: _546  and  _549
REMARK  220  A    between atoms: _551  and  _553
REMARK  221  A    between atoms: _553  and  _554
REMARK  222  A    between atoms: _553  and  _556
REMARK  223  A    between atoms: _559  and  _561
REMARK  224  A    between atoms: _561  and  _562
REMARK  225  A    between atoms: _561  and  _564
REMARK  226  A    between atoms: _564  and  _565
REMARK  227  A    between atoms: _570  and  _572
REMARK  228  A    between atoms: _572  and  _573
REMARK  229  A    between atoms: _572  and  _575
REMARK  230  A    between atoms: _575  and  _576
REMARK  231  A    between atoms: _582  and  _584
REMARK  232  A    between atoms: _584  and  _585
REMARK  233  A    between atoms: _584  and  _587
REMARK  234  A    between atoms: _587  and  _588
REMARK  235  A    between atoms: _591  and  _593
REMARK  236  A    between atoms: _593  and  _594
REMARK  237  A    between atoms: _593  and  _596
REMARK  238  A    between atoms: _596  and  _597
REMARK  239  A    between atoms: _600  and  _602
REMARK  240  A    between atoms: _602  and  _603
REMARK  241  A    between atoms: _602  and  _605
REMARK  242  A    between atoms: _605  and  _606
REMARK                            x       y       z     vdW  Elec       q    Type
REMARK                         _______ _______ _______ _____ _____    ______ ____
ROOT
ATOM      1  O   HOH     1      -3.851 -38.676 -10.743  0.00  0.00    +0.000 OA
ENDROOT
TORSDOF 0
REMARK  Name = ../refined-set-2016/4wn5/4wn5_pocket.pdb
REMARK  242 active torsions:
REMARK  status: ('A' for Active; 'I' for Inactive)
REMARK    1  A    between atoms: _1  and  _5
REMARK    2  A    between atoms: _5  and  _6
REMARK    3  A    between atoms: _5  and  _8
REMARK    4  A    between atoms: _8  and  _9
REMARK    5  A    between atoms: _9  and  _10
REMARK    6  A    between atoms: _10  and  _11
REMARK    7  A    between atoms: _20  and  _22
REMARK    8  A    between atoms: _22  and  _23
REMARK    9  A    between atoms: _25  and  _27
REMARK   10  A    between atoms: _27  and  _28
REMARK   11  A    between atoms: _31  and  _33
REMARK   12  A    between atoms: _33  and  _34
REMARK   13  A    between atoms: _33  and  _36
REMARK   14  A    between atoms: _36  and  _37
REMARK   15  A    between atoms: _43  and  _45
REMARK   16  A    between atoms: _45  and  _46
REMARK   17  A    between atoms: _45  and  _48
REMARK   18  A    between atoms: _48  and  _49
REMARK   19  A    between atoms: _52  and  _54
REMARK   20  A    between atoms: _54  and  _55
REMARK   21  A    between atoms: _54  and  _57
REMARK   22  A    between atoms: _57  and  _58
REMARK   23  A    between atoms: _60  and  _62
REMARK   24  A    between atoms: _62  and  _63
REMARK   25  A    between atoms: _62  and  _65
REMARK   26  A    between atoms: _65  and  _66
REMARK   27  A    between atoms: _66  and  _67
REMARK   28  A    between atoms: _67  and  _68
REMARK   29  A    between atoms: _77  and  _79
REMARK   30  A    between atoms: _79  and  _80
REMARK   31  A    between atoms: _79  and  _82
REMARK   32  A    between atoms: _82  and  _83
REMARK   33  A    between atoms: _88  and  _90
REMARK   34  A    between atoms: _90  and  _91
REMARK   35  A    between atoms: _90  and  _93
REMARK   36  A    between atoms: _93  and  _94
REMARK   37  A    between atoms: _94  and  _95
REMARK   38  A    between atoms: _97  and  _99
REMARK   39  A    between atoms: _99  and  _100
REMARK   40  A    between atoms: _99  and  _102
REMARK   41  A    between atoms: _102  and  _103
REMARK   42  A    between atoms: _109  and  _111
REMARK   43  A    between atoms: _111  and  _112
REMARK   44  A    between atoms: _111  and  _114
REMARK   45  A    between atoms: _114  and  _115
REMARK   46  A    between atoms: _120  and  _121
REMARK   47  A    between atoms: _123  and  _125
REMARK   48  A    between atoms: _125  and  _126
REMARK   49  A    between atoms: _125  and  _128
REMARK   50  A    between atoms: _130  and  _132
REMARK   51  A    between atoms: _132  and  _133
REMARK   52  A    between atoms: _132  and  _135
REMARK   53  A    between atoms: _135  and  _136
REMARK   54  A    between atoms: _139  and  _141
REMARK   55  A    between atoms: _141  and  _142
REMARK   56  A    between atoms: _141  and  _144
REMARK   57  A    between atoms: _144  and  _145
REMARK   58  A    between atoms: _145  and  _146
REMARK   59  A    between atoms: _146  and  _147
REMARK   60  A    between atoms: _156  and  _158
REMARK   61  A    between atoms: _158  and  _159
REMARK   62  A    between atoms: _158  and  _161
REMARK   63  A    between atoms: _161  and  _162
REMARK   64  A    between atoms: _165  and  _167
REMARK   65  A    between atoms: _167  and  _168
REMARK   66  A    between atoms: _167  and  _170
REMARK   67  A    between atoms: _170  and  _171
REMARK   68  A    between atoms: _171  and  _172
REMARK   69  A    between atoms: _175  and  _177
REMARK   70  A    between atoms: _177  and  _178
REMARK   71  A    between atoms: _177  and  _180
REMARK   72  A    between atoms: _183  and  _185
REMARK   73  A    between atoms: _185  and  _186
REMARK   74  A    between atoms: _189  and  _191
REMARK   75  A    between atoms: _191  and  _192
REMARK   76  A    between atoms: _191  and  _194
REMARK   77  A    between atoms: _194  and  _195
REMARK   78  A    between atoms: _200  and  _201
REMARK   79  A    between atoms: _203  and  _205
REMARK   80  A    between atoms: _205  and  _206
REMARK   81  A    between atoms: _205  and  _208
REMARK   82  A    between atoms: _208  and  _209
REMARK   83  A    between atoms: _212  and  _214
REMARK   84  A    between atoms: _214  and  _215
REMARK   85  A    between atoms: _214  and  _217
REMARK   86  A    between atoms: _217  and  _218
REMARK   87  A    between atoms: _220  and  _222
REMARK   88  A    between atoms: _222  and  _223
REMARK   89  A    between atoms: _226  and  _228
REMARK   90  A    between atoms: _228  and  _229
REMARK   91  A    between atoms: _228  and  _231
REMARK   92  A    between atoms: _231  and  _232
REMARK   93  A    between atoms: _237  and  _238
REMARK   94  A    between atoms: _240  and  _242
REMARK   95  A    between atoms: _242  and  _243
REMARK   96  A    between atoms: _242  and  _245
REMARK   97  A    between atoms: _245  and  _246
REMARK   98  A    between atoms: _251  and  _252
REMARK   99  A    between atoms: _254  and  _256
REMARK  100  A    between atoms: _256  and  _257
REMARK  101  A    between atoms: _256  and  _259
REMARK  102  A    between atoms: _259  and  _260
REMARK  103  A    between atoms: _263  and  _265
REMARK  104  A    between atoms: _265  and  _266
REMARK  105  A    between atoms: _269  and  _271
REMARK  106  A    between atoms: _271  and  _272
REMARK  107  A    between atoms: _271  and  _274
REMARK  108  A    between atoms: _277  and  _279
REMARK  109  A    between atoms: _279  and  _280
REMARK  110  A    between atoms: _279  and  _282
REMARK  111  A    between atoms: _282  and  _283
REMARK  112  A    between atoms: _285  and  _287
REMARK  113  A    between atoms: _287  and  _288
REMARK  114  A    between atoms: _287  and  _290
REMARK  115  A    between atoms: _290  and  _291
REMARK  116  A    between atoms: _291  and  _292
REMARK  117  A    between atoms: _292  and  _293
REMARK  118  A    between atoms: _293  and  _294
REMARK  119  A    between atoms: _298  and  _300
REMARK  120  A    between atoms: _300  and  _301
REMARK  121  A    between atoms: _300  and  _303
REMARK  122  A    between atoms: _303  and  _304
REMARK  123  A    between atoms: _306  and  _308
REMARK  124  A    between atoms: _308  and  _309
REMARK  125  A    between atoms: _308  and  _311
REMARK  126  A    between atoms: _311  and  _312
REMARK  127  A    between atoms: _315  and  _317
REMARK  128  A    between atoms: _317  and  _318
REMARK  129  A    between atoms: _317  and  _320
REMARK  130  A    between atoms: _320  and  _321
REMARK  131  A    between atoms: _326  and  _328
REMARK  132  A    between atoms: _328  and  _329
REMARK  133  A    between atoms: _328  and  _331
REMARK  134  A    between atoms: _331  and  _332
REMARK  135  A    between atoms: _335  and  _337
REMARK  136  A    between atoms: _337  and  _338
REMARK  137  A    between atoms: _337  and  _340
REMARK  138  A    between atoms: _340  and  _341
REMARK  139  A    between atoms: _344  and  _346
REMARK  140  A    between atoms: _346  and  _347
REMARK  141  A    between atoms: _346  and  _349
REMARK  142  A    between atoms: _349  and  _350
REMARK  143  A    between atoms: _353  and  _355
REMARK  144  A    between atoms: _355  and  _356
REMARK  145  A    between atoms: _355  and  _358
REMARK  146  A    between atoms: _358  and  _359
REMARK  147  A    between atoms: _359  and  _360
REMARK  148  A    between atoms: _365  and  _367
REMARK  149  A    between atoms: _367  and  _368
REMARK  150  A    between atoms: _371  and  _373
REMARK  151  A    between atoms: _373  and  _374
REMARK  152  A    between atoms: _373  and  _376
REMARK  153  A    between atoms: _379  and  _381
REMARK  154  A    between atoms: _381  and  _382
REMARK  155  A    between atoms: _381  and  _384
REMARK  156  A    between atoms: _384  and  _385
REMARK  157  A    between atoms: _388  and  _390
REMARK  158  A    between atoms: _390  and  _391
REMARK  159  A    between atoms: _393  and  _395
REMARK  160  A    between atoms: _395  and  _396
REMARK  161  A    between atoms: _395  and  _398
REMARK  162  A    between atoms: _398  and  _399
REMARK  163  A    between atoms: _404  and  _405
REMARK  164  A    between atoms: _407  and  _409
REMARK  165  A    between atoms: _409  and  _410
REMARK  166  A    between atoms: _409  and  _412
REMARK  167  A    between atoms: _412  and  _413
REMARK  168  A    between atoms: _413  and  _414
REMARK  169  A    between atoms: _414  and  _415
REMARK  170  A    between atoms: _424  and  _426
REMARK  171  A    between atoms: _426  and  _427
REMARK  172  A    between atoms: _426  and  _429
REMARK  173  A    between atoms: _429  and  _430
REMARK  174  A    between atoms: _436  and  _438
REMARK  175  A    between atoms: _438  and  _439
REMARK  176  A    between atoms: _438  and  _441
REMARK  177  A    between atoms: _441  and  _442
REMARK  178  A    between atoms: _445  and  _447
REMARK  179  A    between atoms: _447  and  _448
REMARK  180  A    between atoms: _447  and  _450
REMARK  181  A    between atoms: _450  and  _451
REMARK  182  A    between atoms: _454  and  _456
REMARK  183  A    between atoms: _456  and  _457
REMARK  184  A    between atoms: _456  and  _459
REMARK  185  A    between atoms: _459  and  _460
REMARK  186  A    between atoms: _470  and  _472
REMARK  187  A    between atoms: _472  and  _473
REMARK  188  A    between atoms: _472  and  _475
REMARK  189  A    between atoms: _475  and  _476
REMARK  190  A    between atoms: _479  and  _481
REMARK  191  A    between atoms: _481  and  _482
REMARK  192  A    between atoms: _481  and  _484
REMARK  193  A    between atoms: _484  and  _485
REMARK  194  A    between atoms: _485  and  _486
REMARK  195  A    between atoms: _491  and  _493
REMARK  196  A    between atoms: _493  and  _494
REMARK  197  A    between atoms: _493  and  _496
REMARK  198  A    between atoms: _496  and  _497
REMARK  199  A    between atoms: _500  and  _502
REMARK  200  A    between atoms: _502  and  _503
REMARK  201  A    between atoms: _502  and  _505
REMARK  202  A    between atoms: _505  and  _506
REMARK  203  A    between atoms: _506  and  _507
REMARK  204  A    between atoms: _512  and  _514
REMARK  205  A    between atoms: _514  and  _515
REMARK  206  A    between atoms: _518  and  _520
REMARK  207  A    between atoms: _520  and  _521
REMARK  208  A    between atoms: _520  and  _523
REMARK  209  A    between atoms: _523  and  _524
REMARK  210  A    between atoms: _527  and  _529
REMARK  211  A    between atoms: _529  and  _530
REMARK  212  A    between atoms: _529  and  _532
REMARK  213  A    between atoms: _532  and  _533
REMARK  214  A    between atoms: _536  and  _538
REMARK  215  A    between atoms: _538  and  _539
REMARK  216  A    between atoms: _538  and  _541
REMARK  217  A    between atoms: _544  and  _546
REMARK  218  A    between atoms: _546  and  _547
REMARK  219  A    between atoms: _546  and  _549
REMARK  220  A    between atoms: _551  and  _553
REMARK  221  A    between atoms: _553  and  _554
REMARK  222  A    between atoms: _553  and  _556
REMARK  223  A    between atoms: _559  and  _561
REMARK  224  A    between atoms: _561  and  _562
REMARK  225  A    between atoms: _561  and  _564
REMARK  226  A    between atoms: _564  and  _565
REMARK  227  A    between atoms: _570  and  _572
REMARK  228  A    between atoms: _572  and  _573
REMARK  229  A    between atoms: _572  and  _575
REMARK  230  A    between atoms: _575  and  _576
REMARK  231  A    between atoms: _582  and  _584
REMARK  232  A    between atoms: _584  and  _585
REMARK  233  A    between atoms: _584  and  _587
REMARK  234  A    between atoms: _587  and  _588
REMARK  235  A    between atoms: _591  and  _593
REMARK  236  A    between atoms: _593  and  _594
REMARK  237  A    between atoms: _593  and  _596
REMARK  238  A    between atoms: _596  and  _597
REMARK  239  A    between atoms: _600  and  _602
REMARK  240  A    between atoms: _602  and  _603
REMARK  241  A    between atoms: _602  and  _605
REMARK  242  A    between atoms: _605  and  _606
REMARK                            x       y       z     vdW  Elec       q    Type
REMARK                         _______ _______ _______ _____ _____    ______ ____
ROOT
ATOM      1  O   HOH     1       9.779 -41.459 -13.317  0.00  0.00    +0.000 OA
ENDROOT
TORSDOF 0
REMARK  Name = ../refined-set-2016/4wn5/4wn5_pocket.pdb
REMARK  242 active torsions:
REMARK  status: ('A' for Active; 'I' for Inactive)
REMARK    1  A    between atoms: _1  and  _5
REMARK    2  A    between atoms: _5  and  _6
REMARK    3  A    between atoms: _5  and  _8
REMARK    4  A    between atoms: _8  and  _9
REMARK    5  A    between atoms: _9  and  _10
REMARK    6  A    between atoms: _10  and  _11
REMARK    7  A    between atoms: _20  and  _22
REMARK    8  A    between atoms: _22  and  _23
REMARK    9  A    between atoms: _25  and  _27
REMARK   10  A    between atoms: _27  and  _28
REMARK   11  A    between atoms: _31  and  _33
REMARK   12  A    between atoms: _33  and  _34
REMARK   13  A    between atoms: _33  and  _36
REMARK   14  A    between atoms: _36  and  _37
REMARK   15  A    between atoms: _43  and  _45
REMARK   16  A    between atoms: _45  and  _46
REMARK   17  A    between atoms: _45  and  _48
REMARK   18  A    between atoms: _48  and  _49
REMARK   19  A    between atoms: _52  and  _54
REMARK   20  A    between atoms: _54  and  _55
REMARK   21  A    between atoms: _54  and  _57
REMARK   22  A    between atoms: _57  and  _58
REMARK   23  A    between atoms: _60  and  _62
REMARK   24  A    between atoms: _62  and  _63
REMARK   25  A    between atoms: _62  and  _65
REMARK   26  A    between atoms: _65  and  _66
REMARK   27  A    between atoms: _66  and  _67
REMARK   28  A    between atoms: _67  and  _68
REMARK   29  A    between atoms: _77  and  _79
REMARK   30  A    between atoms: _79  and  _80
REMARK   31  A    between atoms: _79  and  _82
REMARK   32  A    between atoms: _82  and  _83
REMARK   33  A    between atoms: _88  and  _90
REMARK   34  A    between atoms: _90  and  _91
REMARK   35  A    between atoms: _90  and  _93
REMARK   36  A    between atoms: _93  and  _94
REMARK   37  A    between atoms: _94  and  _95
REMARK   38  A    between atoms: _97  and  _99
REMARK   39  A    between atoms: _99  and  _100
REMARK   40  A    between atoms: _99  and  _102
REMARK   41  A    between atoms: _102  and  _103
REMARK   42  A    between atoms: _109  and  _111
REMARK   43  A    between atoms: _111  and  _112
REMARK   44  A    between atoms: _111  and  _114
REMARK   45  A    between atoms: _114  and  _115
REMARK   46  A    between atoms: _120  and  _121
REMARK   47  A    between atoms: _123  and  _125
REMARK   48  A    between atoms: _125  and  _126
REMARK   49  A    between atoms: _125  and  _128
REMARK   50  A    between atoms: _130  and  _132
REMARK   51  A    between atoms: _132  and  _133
REMARK   52  A    between atoms: _132  and  _135
REMARK   53  A    between atoms: _135  and  _136
REMARK   54  A    between atoms: _139  and  _141
REMARK   55  A    between atoms: _141  and  _142
REMARK   56  A    between atoms: _141  and  _144
REMARK   57  A    between atoms: _144  and  _145
REMARK   58  A    between atoms: _145  and  _146
REMARK   59  A    between atoms: _146  and  _147
REMARK   60  A    between atoms: _156  and  _158
REMARK   61  A    between atoms: _158  and  _159
REMARK   62  A    between atoms: _158  and  _161
REMARK   63  A    between atoms: _161  and  _162
REMARK   64  A    between atoms: _165  and  _167
REMARK   65  A    between atoms: _167  and  _168
REMARK   66  A    between atoms: _167  and  _170
REMARK   67  A    between atoms: _170  and  _171
REMARK   68  A    between atoms: _171  and  _172
REMARK   69  A    between atoms: _175  and  _177
REMARK   70  A    between atoms: _177  and  _178
REMARK   71  A    between atoms: _177  and  _180
REMARK   72  A    between atoms: _183  and  _185
REMARK   73  A    between atoms: _185  and  _186
REMARK   74  A    between atoms: _189  and  _191
REMARK   75  A    between atoms: _191  and  _192
REMARK   76  A    between atoms: _191  and  _194
REMARK   77  A    between atoms: _194  and  _195
REMARK   78  A    between atoms: _200  and  _201
REMARK   79  A    between atoms: _203  and  _205
REMARK   80  A    between atoms: _205  and  _206
REMARK   81  A    between atoms: _205  and  _208
REMARK   82  A    between atoms: _208  and  _209
REMARK   83  A    between atoms: _212  and  _214
REMARK   84  A    between atoms: _214  and  _215
REMARK   85  A    between atoms: _214  and  _217
REMARK   86  A    between atoms: _217  and  _218
REMARK   87  A    between atoms: _220  and  _222
REMARK   88  A    between atoms: _222  and  _223
REMARK   89  A    between atoms: _226  and  _228
REMARK   90  A    between atoms: _228  and  _229
REMARK   91  A    between atoms: _228  and  _231
REMARK   92  A    between atoms: _231  and  _232
REMARK   93  A    between atoms: _237  and  _238
REMARK   94  A    between atoms: _240  and  _242
REMARK   95  A    between atoms: _242  and  _243
REMARK   96  A    between atoms: _242  and  _245
REMARK   97  A    between atoms: _245  and  _246
REMARK   98  A    between atoms: _251  and  _252
REMARK   99  A    between atoms: _254  and  _256
REMARK  100  A    between atoms: _256  and  _257
REMARK  101  A    between atoms: _256  and  _259
REMARK  102  A    between atoms: _259  and  _260
REMARK  103  A    between atoms: _263  and  _265
REMARK  104  A    between atoms: _265  and  _266
REMARK  105  A    between atoms: _269  and  _271
REMARK  106  A    between atoms: _271  and  _272
REMARK  107  A    between atoms: _271  and  _274
REMARK  108  A    between atoms: _277  and  _279
REMARK  109  A    between atoms: _279  and  _280
REMARK  110  A    between atoms: _279  and  _282
REMARK  111  A    between atoms: _282  and  _283
REMARK  112  A    between atoms: _285  and  _287
REMARK  113  A    between atoms: _287  and  _288
REMARK  114  A    between atoms: _287  and  _290
REMARK  115  A    between atoms: _290  and  _291
REMARK  116  A    between atoms: _291  and  _292
REMARK  117  A    between atoms: _292  and  _293
REMARK  118  A    between atoms: _293  and  _294
REMARK  119  A    between atoms: _298  and  _300
REMARK  120  A    between atoms: _300  and  _301
REMARK  121  A    between atoms: _300  and  _303
REMARK  122  A    between atoms: _303  and  _304
REMARK  123  A    between atoms: _306  and  _308
REMARK  124  A    between atoms: _308  and  _309
REMARK  125  A    between atoms: _308  and  _311
REMARK  126  A    between atoms: _311  and  _312
REMARK  127  A    between atoms: _315  and  _317
REMARK  128  A    between atoms: _317  and  _318
REMARK  129  A    between atoms: _317  and  _320
REMARK  130  A    between atoms: _320  and  _321
REMARK  131  A    between atoms: _326  and  _328
REMARK  132  A    between atoms: _328  and  _329
REMARK  133  A    between atoms: _328  and  _331
REMARK  134  A    between atoms: _331  and  _332
REMARK  135  A    between atoms: _335  and  _337
REMARK  136  A    between atoms: _337  and  _338
REMARK  137  A    between atoms: _337  and  _340
REMARK  138  A    between atoms: _340  and  _341
REMARK  139  A    between atoms: _344  and  _346
REMARK  140  A    between atoms: _346  and  _347
REMARK  141  A    between atoms: _346  and  _349
REMARK  142  A    between atoms: _349  and  _350
REMARK  143  A    between atoms: _353  and  _355
REMARK  144  A    between atoms: _355  and  _356
REMARK  145  A    between atoms: _355  and  _358
REMARK  146  A    between atoms: _358  and  _359
REMARK  147  A    between atoms: _359  and  _360
REMARK  148  A    between atoms: _365  and  _367
REMARK  149  A    between atoms: _367  and  _368
REMARK  150  A    between atoms: _371  and  _373
REMARK  151  A    between atoms: _373  and  _374
REMARK  152  A    between atoms: _373  and  _376
REMARK  153  A    between atoms: _379  and  _381
REMARK  154  A    between atoms: _381  and  _382
REMARK  155  A    between atoms: _381  and  _384
REMARK  156  A    between atoms: _384  and  _385
REMARK  157  A    between atoms: _388  and  _390
REMARK  158  A    between atoms: _390  and  _391
REMARK  159  A    between atoms: _393  and  _395
REMARK  160  A    between atoms: _395  and  _396
REMARK  161  A    between atoms: _395  and  _398
REMARK  162  A    between atoms: _398  and  _399
REMARK  163  A    between atoms: _404  and  _405
REMARK  164  A    between atoms: _407  and  _409
REMARK  165  A    between atoms: _409  and  _410
REMARK  166  A    between atoms: _409  and  _412
REMARK  167  A    between atoms: _412  and  _413
REMARK  168  A    between atoms: _413  and  _414
REMARK  169  A    between atoms: _414  and  _415
REMARK  170  A    between atoms: _424  and  _426
REMARK  171  A    between atoms: _426  and  _427
REMARK  172  A    between atoms: _426  and  _429
REMARK  173  A    between atoms: _429  and  _430
REMARK  174  A    between atoms: _436  and  _438
REMARK  175  A    between atoms: _438  and  _439
REMARK  176  A    between atoms: _438  and  _441
REMARK  177  A    between atoms: _441  and  _442
REMARK  178  A    between atoms: _445  and  _447
REMARK  179  A    between atoms: _447  and  _448
REMARK  180  A    between atoms: _447  and  _450
REMARK  181  A    between atoms: _450  and  _451
REMARK  182  A    between atoms: _454  and  _456
REMARK  183  A    between atoms: _456  and  _457
REMARK  184  A    between atoms: _456  and  _459
REMARK  185  A    between atoms: _459  and  _460
REMARK  186  A    between atoms: _470  and  _472
REMARK  187  A    between atoms: _472  and  _473
REMARK  188  A    between atoms: _472  and  _475
REMARK  189  A    between atoms: _475  and  _476
REMARK  190  A    between atoms: _479  and  _481
REMARK  191  A    between atoms: _481  and  _482
REMARK  192  A    between atoms: _481  and  _484
REMARK  193  A    between atoms: _484  and  _485
REMARK  194  A    between atoms: _485  and  _486
REMARK  195  A    between atoms: _491  and  _493
REMARK  196  A    between atoms: _493  and  _494
REMARK  197  A    between atoms: _493  and  _496
REMARK  198  A    between atoms: _496  and  _497
REMARK  199  A    between atoms: _500  and  _502
REMARK  200  A    between atoms: _502  and  _503
REMARK  201  A    between atoms: _502  and  _505
REMARK  202  A    between atoms: _505  and  _506
REMARK  203  A    between atoms: _506  and  _507
REMARK  204  A    between atoms: _512  and  _514
REMARK  205  A    between atoms: _514  and  _515
REMARK  206  A    between atoms: _518  and  _520
REMARK  207  A    between atoms: _520  and  _521
REMARK  208  A    between atoms: _520  and  _523
REMARK  209  A    between atoms: _523  and  _524
REMARK  210  A    between atoms: _527  and  _529
REMARK  211  A    between atoms: _529  and  _530
REMARK  212  A    between atoms: _529  and  _532
REMARK  213  A    between atoms: _532  and  _533
REMARK  214  A    between atoms: _536  and  _538
REMARK  215  A    between atoms: _538  and  _539
REMARK  216  A    between atoms: _538  and  _541
REMARK  217  A    between atoms: _544  and  _546
REMARK  218  A    between atoms: _546  and  _547
REMARK  219  A    between atoms: _546  and  _549
REMARK  220  A    between atoms: _551  and  _553
REMARK  221  A    between atoms: _553  and  _554
REMARK  222  A    between atoms: _553  and  _556
REMARK  223  A    between atoms: _559  and  _561
REMARK  224  A    between atoms: _561  and  _562
REMARK  225  A    between atoms: _561  and  _564
REMARK  226  A    between atoms: _564  and  _565
REMARK  227  A    between atoms: _570  and  _572
REMARK  228  A    between atoms: _572  and  _573
REMARK  229  A    between atoms: _572  and  _575
REMARK  230  A    between atoms: _575  and  _576
REMARK  231  A    between atoms: _582  and  _584
REMARK  232  A    between atoms: _584  and  _585
REMARK  233  A    between atoms: _584  and  _587
REMARK  234  A    between atoms: _587  and  _588
REMARK  235  A    between atoms: _591  and  _593
REMARK  236  A    between atoms: _593  and  _594
REMARK  237  A    between atoms: _593  and  _596
REMARK  238  A    between atoms: _596  and  _597
REMARK  239  A    between atoms: _600  and  _602
REMARK  240  A    between atoms: _602  and  _603
REMARK  241  A    between atoms: _602  and  _605
REMARK  242  A    between atoms: _605  and  _606
REMARK                            x       y       z     vdW  Elec       q    Type
REMARK                         _______ _______ _______ _____ _____    ______ ____
ROOT
ATOM      1  O   HOH     1      -7.958 -46.184 -19.306  0.00  0.00    +0.000 OA
ENDROOT
TORSDOF 0
REMARK  Name = ../refined-set-2016/4wn5/4wn5_pocket.pdb
REMARK  242 active torsions:
REMARK  status: ('A' for Active; 'I' for Inactive)
REMARK    1  A    between atoms: _1  and  _5
REMARK    2  A    between atoms: _5  and  _6
REMARK    3  A    between atoms: _5  and  _8
REMARK    4  A    between atoms: _8  and  _9
REMARK    5  A    between atoms: _9  and  _10
REMARK    6  A    between atoms: _10  and  _11
REMARK    7  A    between atoms: _20  and  _22
REMARK    8  A    between atoms: _22  and  _23
REMARK    9  A    between atoms: _25  and  _27
REMARK   10  A    between atoms: _27  and  _28
REMARK   11  A    between atoms: _31  and  _33
REMARK   12  A    between atoms: _33  and  _34
REMARK   13  A    between atoms: _33  and  _36
REMARK   14  A    between atoms: _36  and  _37
REMARK   15  A    between atoms: _43  and  _45
REMARK   16  A    between atoms: _45  and  _46
REMARK   17  A    between atoms: _45  and  _48
REMARK   18  A    between atoms: _48  and  _49
REMARK   19  A    between atoms: _52  and  _54
REMARK   20  A    between atoms: _54  and  _55
REMARK   21  A    between atoms: _54  and  _57
REMARK   22  A    between atoms: _57  and  _58
REMARK   23  A    between atoms: _60  and  _62
REMARK   24  A    between atoms: _62  and  _63
REMARK   25  A    between atoms: _62  and  _65
REMARK   26  A    between atoms: _65  and  _66
REMARK   27  A    between atoms: _66  and  _67
REMARK   28  A    between atoms: _67  and  _68
REMARK   29  A    between atoms: _77  and  _79
REMARK   30  A    between atoms: _79  and  _80
REMARK   31  A    between atoms: _79  and  _82
REMARK   32  A    between atoms: _82  and  _83
REMARK   33  A    between atoms: _88  and  _90
REMARK   34  A    between atoms: _90  and  _91
REMARK   35  A    between atoms: _90  and  _93
REMARK   36  A    between atoms: _93  and  _94
REMARK   37  A    between atoms: _94  and  _95
REMARK   38  A    between atoms: _97  and  _99
REMARK   39  A    between atoms: _99  and  _100
REMARK   40  A    between atoms: _99  and  _102
REMARK   41  A    between atoms: _102  and  _103
REMARK   42  A    between atoms: _109  and  _111
REMARK   43  A    between atoms: _111  and  _112
REMARK   44  A    between atoms: _111  and  _114
REMARK   45  A    between atoms: _114  and  _115
REMARK   46  A    between atoms: _120  and  _121
REMARK   47  A    between atoms: _123  and  _125
REMARK   48  A    between atoms: _125  and  _126
REMARK   49  A    between atoms: _125  and  _128
REMARK   50  A    between atoms: _130  and  _132
REMARK   51  A    between atoms: _132  and  _133
REMARK   52  A    between atoms: _132  and  _135
REMARK   53  A    between atoms: _135  and  _136
REMARK   54  A    between atoms: _139  and  _141
REMARK   55  A    between atoms: _141  and  _142
REMARK   56  A    between atoms: _141  and  _144
REMARK   57  A    between atoms: _144  and  _145
REMARK   58  A    between atoms: _145  and  _146
REMARK   59  A    between atoms: _146  and  _147
REMARK   60  A    between atoms: _156  and  _158
REMARK   61  A    between atoms: _158  and  _159
REMARK   62  A    between atoms: _158  and  _161
REMARK   63  A    between atoms: _161  and  _162
REMARK   64  A    between atoms: _165  and  _167
REMARK   65  A    between atoms: _167  and  _168
REMARK   66  A    between atoms: _167  and  _170
REMARK   67  A    between atoms: _170  and  _171
REMARK   68  A    between atoms: _171  and  _172
REMARK   69  A    between atoms: _175  and  _177
REMARK   70  A    between atoms: _177  and  _178
REMARK   71  A    between atoms: _177  and  _180
REMARK   72  A    between atoms: _183  and  _185
REMARK   73  A    between atoms: _185  and  _186
REMARK   74  A    between atoms: _189  and  _191
REMARK   75  A    between atoms: _191  and  _192
REMARK   76  A    between atoms: _191  and  _194
REMARK   77  A    between atoms: _194  and  _195
REMARK   78  A    between atoms: _200  and  _201
REMARK   79  A    between atoms: _203  and  _205
REMARK   80  A    between atoms: _205  and  _206
REMARK   81  A    between atoms: _205  and  _208
REMARK   82  A    between atoms: _208  and  _209
REMARK   83  A    between atoms: _212  and  _214
REMARK   84  A    between atoms: _214  and  _215
REMARK   85  A    between atoms: _214  and  _217
REMARK   86  A    between atoms: _217  and  _218
REMARK   87  A    between atoms: _220  and  _222
REMARK   88  A    between atoms: _222  and  _223
REMARK   89  A    between atoms: _226  and  _228
REMARK   90  A    between atoms: _228  and  _229
REMARK   91  A    between atoms: _228  and  _231
REMARK   92  A    between atoms: _231  and  _232
REMARK   93  A    between atoms: _237  and  _238
REMARK   94  A    between atoms: _240  and  _242
REMARK   95  A    between atoms: _242  and  _243
REMARK   96  A    between atoms: _242  and  _245
REMARK   97  A    between atoms: _245  and  _246
REMARK   98  A    between atoms: _251  and  _252
REMARK   99  A    between atoms: _254  and  _256
REMARK  100  A    between atoms: _256  and  _257
REMARK  101  A    between atoms: _256  and  _259
REMARK  102  A    between atoms: _259  and  _260
REMARK  103  A    between atoms: _263  and  _265
REMARK  104  A    between atoms: _265  and  _266
REMARK  105  A    between atoms: _269  and  _271
REMARK  106  A    between atoms: _271  and  _272
REMARK  107  A    between atoms: _271  and  _274
REMARK  108  A    between atoms: _277  and  _279
REMARK  109  A    between atoms: _279  and  _280
REMARK  110  A    between atoms: _279  and  _282
REMARK  111  A    between atoms: _282  and  _283
REMARK  112  A    between atoms: _285  and  _287
REMARK  113  A    between atoms: _287  and  _288
REMARK  114  A    between atoms: _287  and  _290
REMARK  115  A    between atoms: _290  and  _291
REMARK  116  A    between atoms: _291  and  _292
REMARK  117  A    between atoms: _292  and  _293
REMARK  118  A    between atoms: _293  and  _294
REMARK  119  A    between atoms: _298  and  _300
REMARK  120  A    between atoms: _300  and  _301
REMARK  121  A    between atoms: _300  and  _303
REMARK  122  A    between atoms: _303  and  _304
REMARK  123  A    between atoms: _306  and  _308
REMARK  124  A    between atoms: _308  and  _309
REMARK  125  A    between atoms: _308  and  _311
REMARK  126  A    between atoms: _311  and  _312
REMARK  127  A    between atoms: _315  and  _317
REMARK  128  A    between atoms: _317  and  _318
REMARK  129  A    between atoms: _317  and  _320
REMARK  130  A    between atoms: _320  and  _321
REMARK  131  A    between atoms: _326  and  _328
REMARK  132  A    between atoms: _328  and  _329
REMARK  133  A    between atoms: _328  and  _331
REMARK  134  A    between atoms: _331  and  _332
REMARK  135  A    between atoms: _335  and  _337
REMARK  136  A    between atoms: _337  and  _338
REMARK  137  A    between atoms: _337  and  _340
REMARK  138  A    between atoms: _340  and  _341
REMARK  139  A    between atoms: _344  and  _346
REMARK  140  A    between atoms: _346  and  _347
REMARK  141  A    between atoms: _346  and  _349
REMARK  142  A    between atoms: _349  and  _350
REMARK  143  A    between atoms: _353  and  _355
REMARK  144  A    between atoms: _355  and  _356
REMARK  145  A    between atoms: _355  and  _358
REMARK  146  A    between atoms: _358  and  _359
REMARK  147  A    between atoms: _359  and  _360
REMARK  148  A    between atoms: _365  and  _367
REMARK  149  A    between atoms: _367  and  _368
REMARK  150  A    between atoms: _371  and  _373
REMARK  151  A    between atoms: _373  and  _374
REMARK  152  A    between atoms: _373  and  _376
REMARK  153  A    between atoms: _379  and  _381
REMARK  154  A    between atoms: _381  and  _382
REMARK  155  A    between atoms: _381  and  _384
REMARK  156  A    between atoms: _384  and  _385
REMARK  157  A    between atoms: _388  and  _390
REMARK  158  A    between atoms: _390  and  _391
REMARK  159  A    between atoms: _393  and  _395
REMARK  160  A    between atoms: _395  and  _396
REMARK  161  A    between atoms: _395  and  _398
REMARK  162  A    between atoms: _398  and  _399
REMARK  163  A    between atoms: _404  and  _405
REMARK  164  A    between atoms: _407  and  _409
REMARK  165  A    between atoms: _409  and  _410
REMARK  166  A    between atoms: _409  and  _412
REMARK  167  A    between atoms: _412  and  _413
REMARK  168  A    between atoms: _413  and  _414
REMARK  169  A    between atoms: _414  and  _415
REMARK  170  A    between atoms: _424  and  _426
REMARK  171  A    between atoms: _426  and  _427
REMARK  172  A    between atoms: _426  and  _429
REMARK  173  A    between atoms: _429  and  _430
REMARK  174  A    between atoms: _436  and  _438
REMARK  175  A    between atoms: _438  and  _439
REMARK  176  A    between atoms: _438  and  _441
REMARK  177  A    between atoms: _441  and  _442
REMARK  178  A    between atoms: _445  and  _447
REMARK  179  A    between atoms: _447  and  _448
REMARK  180  A    between atoms: _447  and  _450
REMARK  181  A    between atoms: _450  and  _451
REMARK  182  A    between atoms: _454  and  _456
REMARK  183  A    between atoms: _456  and  _457
REMARK  184  A    between atoms: _456  and  _459
REMARK  185  A    between atoms: _459  and  _460
REMARK  186  A    between atoms: _470  and  _472
REMARK  187  A    between atoms: _472  and  _473
REMARK  188  A    between atoms: _472  and  _475
REMARK  189  A    between atoms: _475  and  _476
REMARK  190  A    between atoms: _479  and  _481
REMARK  191  A    between atoms: _481  and  _482
REMARK  192  A    between atoms: _481  and  _484
REMARK  193  A    between atoms: _484  and  _485
REMARK  194  A    between atoms: _485  and  _486
REMARK  195  A    between atoms: _491  and  _493
REMARK  196  A    between atoms: _493  and  _494
REMARK  197  A    between atoms: _493  and  _496
REMARK  198  A    between atoms: _496  and  _497
REMARK  199  A    between atoms: _500  and  _502
REMARK  200  A    between atoms: _502  and  _503
REMARK  201  A    between atoms: _502  and  _505
REMARK  202  A    between atoms: _505  and  _506
REMARK  203  A    between atoms: _506  and  _507
REMARK  204  A    between atoms: _512  and  _514
REMARK  205  A    between atoms: _514  and  _515
REMARK  206  A    between atoms: _518  and  _520
REMARK  207  A    between atoms: _520  and  _521
REMARK  208  A    between atoms: _520  and  _523
REMARK  209  A    between atoms: _523  and  _524
REMARK  210  A    between atoms: _527  and  _529
REMARK  211  A    between atoms: _529  and  _530
REMARK  212  A    between atoms: _529  and  _532
REMARK  213  A    between atoms: _532  and  _533
REMARK  214  A    between atoms: _536  and  _538
REMARK  215  A    between atoms: _538  and  _539
REMARK  216  A    between atoms: _538  and  _541
REMARK  217  A    between atoms: _544  and  _546
REMARK  218  A    between atoms: _546  and  _547
REMARK  219  A    between atoms: _546  and  _549
REMARK  220  A    between atoms: _551  and  _553
REMARK  221  A    between atoms: _553  and  _554
REMARK  222  A    between atoms: _553  and  _556
REMARK  223  A    between atoms: _559  and  _561
REMARK  224  A    between atoms: _561  and  _562
REMARK  225  A    between atoms: _561  and  _564
REMARK  226  A    between atoms: _564  and  _565
REMARK  227  A    between atoms: _570  and  _572
REMARK  228  A    between atoms: _572  and  _573
REMARK  229  A    between atoms: _572  and  _575
REMARK  230  A    between atoms: _575  and  _576
REMARK  231  A    between atoms: _582  and  _584
REMARK  232  A    between atoms: _584  and  _585
REMARK  233  A    between atoms: _584  and  _587
REMARK  234  A    between atoms: _587  and  _588
REMARK  235  A    between atoms: _591  and  _593
REMARK  236  A    between atoms: _593  and  _594
REMARK  237  A    between atoms: _593  and  _596
REMARK  238  A    between atoms: _596  and  _597
REMARK  239  A    between atoms: _600  and  _602
REMARK  240  A    between atoms: _602  and  _603
REMARK  241  A    between atoms: _602  and  _605
REMARK  242  A    between atoms: _605  and  _606
REMARK                            x       y       z     vdW  Elec       q    Type
REMARK                         _______ _______ _______ _____ _____    ______ ____
ROOT
ATOM      1  O   HOH     1      13.023 -48.648 -16.566  0.00  0.00    +0.000 OA
ENDROOT
TORSDOF 0
REMARK  Name = ../refined-set-2016/4wn5/4wn5_pocket.pdb
REMARK  242 active torsions:
REMARK  status: ('A' for Active; 'I' for Inactive)
REMARK    1  A    between atoms: _1  and  _5
REMARK    2  A    between atoms: _5  and  _6
REMARK    3  A    between atoms: _5  and  _8
REMARK    4  A    between atoms: _8  and  _9
REMARK    5  A    between atoms: _9  and  _10
REMARK    6  A    between atoms: _10  and  _11
REMARK    7  A    between atoms: _20  and  _22
REMARK    8  A    between atoms: _22  and  _23
REMARK    9  A    between atoms: _25  and  _27
REMARK   10  A    between atoms: _27  and  _28
REMARK   11  A    between atoms: _31  and  _33
REMARK   12  A    between atoms: _33  and  _34
REMARK   13  A    between atoms: _33  and  _36
REMARK   14  A    between atoms: _36  and  _37
REMARK   15  A    between atoms: _43  and  _45
REMARK   16  A    between atoms: _45  and  _46
REMARK   17  A    between atoms: _45  and  _48
REMARK   18  A    between atoms: _48  and  _49
REMARK   19  A    between atoms: _52  and  _54
REMARK   20  A    between atoms: _54  and  _55
REMARK   21  A    between atoms: _54  and  _57
REMARK   22  A    between atoms: _57  and  _58
REMARK   23  A    between atoms: _60  and  _62
REMARK   24  A    between atoms: _62  and  _63
REMARK   25  A    between atoms: _62  and  _65
REMARK   26  A    between atoms: _65  and  _66
REMARK   27  A    between atoms: _66  and  _67
REMARK   28  A    between atoms: _67  and  _68
REMARK   29  A    between atoms: _77  and  _79
REMARK   30  A    between atoms: _79  and  _80
REMARK   31  A    between atoms: _79  and  _82
REMARK   32  A    between atoms: _82  and  _83
REMARK   33  A    between atoms: _88  and  _90
REMARK   34  A    between atoms: _90  and  _91
REMARK   35  A    between atoms: _90  and  _93
REMARK   36  A    between atoms: _93  and  _94
REMARK   37  A    between atoms: _94  and  _95
REMARK   38  A    between atoms: _97  and  _99
REMARK   39  A    between atoms: _99  and  _100
REMARK   40  A    between atoms: _99  and  _102
REMARK   41  A    between atoms: _102  and  _103
REMARK   42  A    between atoms: _109  and  _111
REMARK   43  A    between atoms: _111  and  _112
REMARK   44  A    between atoms: _111  and  _114
REMARK   45  A    between atoms: _114  and  _115
REMARK   46  A    between atoms: _120  and  _121
REMARK   47  A    between atoms: _123  and  _125
REMARK   48  A    between atoms: _125  and  _126
REMARK   49  A    between atoms: _125  and  _128
REMARK   50  A    between atoms: _130  and  _132
REMARK   51  A    between atoms: _132  and  _133
REMARK   52  A    between atoms: _132  and  _135
REMARK   53  A    between atoms: _135  and  _136
REMARK   54  A    between atoms: _139  and  _141
REMARK   55  A    between atoms: _141  and  _142
REMARK   56  A    between atoms: _141  and  _144
REMARK   57  A    between atoms: _144  and  _145
REMARK   58  A    between atoms: _145  and  _146
REMARK   59  A    between atoms: _146  and  _147
REMARK   60  A    between atoms: _156  and  _158
REMARK   61  A    between atoms: _158  and  _159
REMARK   62  A    between atoms: _158  and  _161
REMARK   63  A    between atoms: _161  and  _162
REMARK   64  A    between atoms: _165  and  _167
REMARK   65  A    between atoms: _167  and  _168
REMARK   66  A    between atoms: _167  and  _170
REMARK   67  A    between atoms: _170  and  _171
REMARK   68  A    between atoms: _171  and  _172
REMARK   69  A    between atoms: _175  and  _177
REMARK   70  A    between atoms: _177  and  _178
REMARK   71  A    between atoms: _177  and  _180
REMARK   72  A    between atoms: _183  and  _185
REMARK   73  A    between atoms: _185  and  _186
REMARK   74  A    between atoms: _189  and  _191
REMARK   75  A    between atoms: _191  and  _192
REMARK   76  A    between atoms: _191  and  _194
REMARK   77  A    between atoms: _194  and  _195
REMARK   78  A    between atoms: _200  and  _201
REMARK   79  A    between atoms: _203  and  _205
REMARK   80  A    between atoms: _205  and  _206
REMARK   81  A    between atoms: _205  and  _208
REMARK   82  A    between atoms: _208  and  _209
REMARK   83  A    between atoms: _212  and  _214
REMARK   84  A    between atoms: _214  and  _215
REMARK   85  A    between atoms: _214  and  _217
REMARK   86  A    between atoms: _217  and  _218
REMARK   87  A    between atoms: _220  and  _222
REMARK   88  A    between atoms: _222  and  _223
REMARK   89  A    between atoms: _226  and  _228
REMARK   90  A    between atoms: _228  and  _229
REMARK   91  A    between atoms: _228  and  _231
REMARK   92  A    between atoms: _231  and  _232
REMARK   93  A    between atoms: _237  and  _238
REMARK   94  A    between atoms: _240  and  _242
REMARK   95  A    between atoms: _242  and  _243
REMARK   96  A    between atoms: _242  and  _245
REMARK   97  A    between atoms: _245  and  _246
REMARK   98  A    between atoms: _251  and  _252
REMARK   99  A    between atoms: _254  and  _256
REMARK  100  A    between atoms: _256  and  _257
REMARK  101  A    between atoms: _256  and  _259
REMARK  102  A    between atoms: _259  and  _260
REMARK  103  A    between atoms: _263  and  _265
REMARK  104  A    between atoms: _265  and  _266
REMARK  105  A    between atoms: _269  and  _271
REMARK  106  A    between atoms: _271  and  _272
REMARK  107  A    between atoms: _271  and  _274
REMARK  108  A    between atoms: _277  and  _279
REMARK  109  A    between atoms: _279  and  _280
REMARK  110  A    between atoms: _279  and  _282
REMARK  111  A    between atoms: _282  and  _283
REMARK  112  A    between atoms: _285  and  _287
REMARK  113  A    between atoms: _287  and  _288
REMARK  114  A    between atoms: _287  and  _290
REMARK  115  A    between atoms: _290  and  _291
REMARK  116  A    between atoms: _291  and  _292
REMARK  117  A    between atoms: _292  and  _293
REMARK  118  A    between atoms: _293  and  _294
REMARK  119  A    between atoms: _298  and  _300
REMARK  120  A    between atoms: _300  and  _301
REMARK  121  A    between atoms: _300  and  _303
REMARK  122  A    between atoms: _303  and  _304
REMARK  123  A    between atoms: _306  and  _308
REMARK  124  A    between atoms: _308  and  _309
REMARK  125  A    between atoms: _308  and  _311
REMARK  126  A    between atoms: _311  and  _312
REMARK  127  A    between atoms: _315  and  _317
REMARK  128  A    between atoms: _317  and  _318
REMARK  129  A    between atoms: _317  and  _320
REMARK  130  A    between atoms: _320  and  _321
REMARK  131  A    between atoms: _326  and  _328
REMARK  132  A    between atoms: _328  and  _329
REMARK  133  A    between atoms: _328  and  _331
REMARK  134  A    between atoms: _331  and  _332
REMARK  135  A    between atoms: _335  and  _337
REMARK  136  A    between atoms: _337  and  _338
REMARK  137  A    between atoms: _337  and  _340
REMARK  138  A    between atoms: _340  and  _341
REMARK  139  A    between atoms: _344  and  _346
REMARK  140  A    between atoms: _346  and  _347
REMARK  141  A    between atoms: _346  and  _349
REMARK  142  A    between atoms: _349  and  _350
REMARK  143  A    between atoms: _353  and  _355
REMARK  144  A    between atoms: _355  and  _356
REMARK  145  A    between atoms: _355  and  _358
REMARK  146  A    between atoms: _358  and  _359
REMARK  147  A    between atoms: _359  and  _360
REMARK  148  A    between atoms: _365  and  _367
REMARK  149  A    between atoms: _367  and  _368
REMARK  150  A    between atoms: _371  and  _373
REMARK  151  A    between atoms: _373  and  _374
REMARK  152  A    between atoms: _373  and  _376
REMARK  153  A    between atoms: _379  and  _381
REMARK  154  A    between atoms: _381  and  _382
REMARK  155  A    between atoms: _381  and  _384
REMARK  156  A    between atoms: _384  and  _385
REMARK  157  A    between atoms: _388  and  _390
REMARK  158  A    between atoms: _390  and  _391
REMARK  159  A    between atoms: _393  and  _395
REMARK  160  A    between atoms: _395  and  _396
REMARK  161  A    between atoms: _395  and  _398
REMARK  162  A    between atoms: _398  and  _399
REMARK  163  A    between atoms: _404  and  _405
REMARK  164  A    between atoms: _407  and  _409
REMARK  165  A    between atoms: _409  and  _410
REMARK  166  A    between atoms: _409  and  _412
REMARK  167  A    between atoms: _412  and  _413
REMARK  168  A    between atoms: _413  and  _414
REMARK  169  A    between atoms: _414  and  _415
REMARK  170  A    between atoms: _424  and  _426
REMARK  171  A    between atoms: _426  and  _427
REMARK  172  A    between atoms: _426  and  _429
REMARK  173  A    between atoms: _429  and  _430
REMARK  174  A    between atoms: _436  and  _438
REMARK  175  A    between atoms: _438  and  _439
REMARK  176  A    between atoms: _438  and  _441
REMARK  177  A    between atoms: _441  and  _442
REMARK  178  A    between atoms: _445  and  _447
REMARK  179  A    between atoms: _447  and  _448
REMARK  180  A    between atoms: _447  and  _450
REMARK  181  A    between atoms: _450  and  _451
REMARK  182  A    between atoms: _454  and  _456
REMARK  183  A    between atoms: _456  and  _457
REMARK  184  A    between atoms: _456  and  _459
REMARK  185  A    between atoms: _459  and  _460
REMARK  186  A    between atoms: _470  and  _472
REMARK  187  A    between atoms: _472  and  _473
REMARK  188  A    between atoms: _472  and  _475
REMARK  189  A    between atoms: _475  and  _476
REMARK  190  A    between atoms: _479  and  _481
REMARK  191  A    between atoms: _481  and  _482
REMARK  192  A    between atoms: _481  and  _484
REMARK  193  A    between atoms: _484  and  _485
REMARK  194  A    between atoms: _485  and  _486
REMARK  195  A    between atoms: _491  and  _493
REMARK  196  A    between atoms: _493  and  _494
REMARK  197  A    between atoms: _493  and  _496
REMARK  198  A    between atoms: _496  and  _497
REMARK  199  A    between atoms: _500  and  _502
REMARK  200  A    between atoms: _502  and  _503
REMARK  201  A    between atoms: _502  and  _505
REMARK  202  A    between atoms: _505  and  _506
REMARK  203  A    between atoms: _506  and  _507
REMARK  204  A    between atoms: _512  and  _514
REMARK  205  A    between atoms: _514  and  _515
REMARK  206  A    between atoms: _518  and  _520
REMARK  207  A    between atoms: _520  and  _521
REMARK  208  A    between atoms: _520  and  _523
REMARK  209  A    between atoms: _523  and  _524
REMARK  210  A    between atoms: _527  and  _529
REMARK  211  A    between atoms: _529  and  _530
REMARK  212  A    between atoms: _529  and  _532
REMARK  213  A    between atoms: _532  and  _533
REMARK  214  A    between atoms: _536  and  _538
REMARK  215  A    between atoms: _538  and  _539
REMARK  216  A    between atoms: _538  and  _541
REMARK  217  A    between atoms: _544  and  _546
REMARK  218  A    between atoms: _546  and  _547
REMARK  219  A    between atoms: _546  and  _549
REMARK  220  A    between atoms: _551  and  _553
REMARK  221  A    between atoms: _553  and  _554
REMARK  222  A    between atoms: _553  and  _556
REMARK  223  A    between atoms: _559  and  _561
REMARK  224  A    between atoms: _561  and  _562
REMARK  225  A    between atoms: _561  and  _564
REMARK  226  A    between atoms: _564  and  _565
REMARK  227  A    between atoms: _570  and  _572
REMARK  228  A    between atoms: _572  and  _573
REMARK  229  A    between atoms: _572  and  _575
REMARK  230  A    between atoms: _575  and  _576
REMARK  231  A    between atoms: _582  and  _584
REMARK  232  A    between atoms: _584  and  _585
REMARK  233  A    between atoms: _584  and  _587
REMARK  234  A    between atoms: _587  and  _588
REMARK  235  A    between atoms: _591  and  _593
REMARK  236  A    between atoms: _593  and  _594
REMARK  237  A    between atoms: _593  and  _596
REMARK  238  A    between atoms: _596  and  _597
REMARK  239  A    between atoms: _600  and  _602
REMARK  240  A    between atoms: _602  and  _603
REMARK  241  A    between atoms: _602  and  _605
REMARK  242  A    between atoms: _605  and  _606
REMARK                            x       y       z     vdW  Elec       q    Type
REMARK                         _______ _______ _______ _____ _____    ______ ____
ROOT
ATOM      1  O   HOH     1      -5.911 -40.370  -9.203  0.00  0.00    +0.000 OA
ENDROOT
TORSDOF 0
REMARK  Name = ../refined-set-2016/4wn5/4wn5_pocket.pdb
REMARK  242 active torsions:
REMARK  status: ('A' for Active; 'I' for Inactive)
REMARK    1  A    between atoms: _1  and  _5
REMARK    2  A    between atoms: _5  and  _6
REMARK    3  A    between atoms: _5  and  _8
REMARK    4  A    between atoms: _8  and  _9
REMARK    5  A    between atoms: _9  and  _10
REMARK    6  A    between atoms: _10  and  _11
REMARK    7  A    between atoms: _20  and  _22
REMARK    8  A    between atoms: _22  and  _23
REMARK    9  A    between atoms: _25  and  _27
REMARK   10  A    between atoms: _27  and  _28
REMARK   11  A    between atoms: _31  and  _33
REMARK   12  A    between atoms: _33  and  _34
REMARK   13  A    between atoms: _33  and  _36
REMARK   14  A    between atoms: _36  and  _37
REMARK   15  A    between atoms: _43  and  _45
REMARK   16  A    between atoms: _45  and  _46
REMARK   17  A    between atoms: _45  and  _48
REMARK   18  A    between atoms: _48  and  _49
REMARK   19  A    between atoms: _52  and  _54
REMARK   20  A    between atoms: _54  and  _55
REMARK   21  A    between atoms: _54  and  _57
REMARK   22  A    between atoms: _57  and  _58
REMARK   23  A    between atoms: _60  and  _62
REMARK   24  A    between atoms: _62  and  _63
REMARK   25  A    between atoms: _62  and  _65
REMARK   26  A    between atoms: _65  and  _66
REMARK   27  A    between atoms: _66  and  _67
REMARK   28  A    between atoms: _67  and  _68
REMARK   29  A    between atoms: _77  and  _79
REMARK   30  A    between atoms: _79  and  _80
REMARK   31  A    between atoms: _79  and  _82
REMARK   32  A    between atoms: _82  and  _83
REMARK   33  A    between atoms: _88  and  _90
REMARK   34  A    between atoms: _90  and  _91
REMARK   35  A    between atoms: _90  and  _93
REMARK   36  A    between atoms: _93  and  _94
REMARK   37  A    between atoms: _94  and  _95
REMARK   38  A    between atoms: _97  and  _99
REMARK   39  A    between atoms: _99  and  _100
REMARK   40  A    between atoms: _99  and  _102
REMARK   41  A    between atoms: _102  and  _103
REMARK   42  A    between atoms: _109  and  _111
REMARK   43  A    between atoms: _111  and  _112
REMARK   44  A    between atoms: _111  and  _114
REMARK   45  A    between atoms: _114  and  _115
REMARK   46  A    between atoms: _120  and  _121
REMARK   47  A    between atoms: _123  and  _125
REMARK   48  A    between atoms: _125  and  _126
REMARK   49  A    between atoms: _125  and  _128
REMARK   50  A    between atoms: _130  and  _132
REMARK   51  A    between atoms: _132  and  _133
REMARK   52  A    between atoms: _132  and  _135
REMARK   53  A    between atoms: _135  and  _136
REMARK   54  A    between atoms: _139  and  _141
REMARK   55  A    between atoms: _141  and  _142
REMARK   56  A    between atoms: _141  and  _144
REMARK   57  A    between atoms: _144  and  _145
REMARK   58  A    between atoms: _145  and  _146
REMARK   59  A    between atoms: _146  and  _147
REMARK   60  A    between atoms: _156  and  _158
REMARK   61  A    between atoms: _158  and  _159
REMARK   62  A    between atoms: _158  and  _161
REMARK   63  A    between atoms: _161  and  _162
REMARK   64  A    between atoms: _165  and  _167
REMARK   65  A    between atoms: _167  and  _168
REMARK   66  A    between atoms: _167  and  _170
REMARK   67  A    between atoms: _170  and  _171
REMARK   68  A    between atoms: _171  and  _172
REMARK   69  A    between atoms: _175  and  _177
REMARK   70  A    between atoms: _177  and  _178
REMARK   71  A    between atoms: _177  and  _180
REMARK   72  A    between atoms: _183  and  _185
REMARK   73  A    between atoms: _185  and  _186
REMARK   74  A    between atoms: _189  and  _191
REMARK   75  A    between atoms: _191  and  _192
REMARK   76  A    between atoms: _191  and  _194
REMARK   77  A    between atoms: _194  and  _195
REMARK   78  A    between atoms: _200  and  _201
REMARK   79  A    between atoms: _203  and  _205
REMARK   80  A    between atoms: _205  and  _206
REMARK   81  A    between atoms: _205  and  _208
REMARK   82  A    between atoms: _208  and  _209
REMARK   83  A    between atoms: _212  and  _214
REMARK   84  A    between atoms: _214  and  _215
REMARK   85  A    between atoms: _214  and  _217
REMARK   86  A    between atoms: _217  and  _218
REMARK   87  A    between atoms: _220  and  _222
REMARK   88  A    between atoms: _222  and  _223
REMARK   89  A    between atoms: _226  and  _228
REMARK   90  A    between atoms: _228  and  _229
REMARK   91  A    between atoms: _228  and  _231
REMARK   92  A    between atoms: _231  and  _232
REMARK   93  A    between atoms: _237  and  _238
REMARK   94  A    between atoms: _240  and  _242
REMARK   95  A    between atoms: _242  and  _243
REMARK   96  A    between atoms: _242  and  _245
REMARK   97  A    between atoms: _245  and  _246
REMARK   98  A    between atoms: _251  and  _252
REMARK   99  A    between atoms: _254  and  _256
REMARK  100  A    between atoms: _256  and  _257
REMARK  101  A    between atoms: _256  and  _259
REMARK  102  A    between atoms: _259  and  _260
REMARK  103  A    between atoms: _263  and  _265
REMARK  104  A    between atoms: _265  and  _266
REMARK  105  A    between atoms: _269  and  _271
REMARK  106  A    between atoms: _271  and  _272
REMARK  107  A    between atoms: _271  and  _274
REMARK  108  A    between atoms: _277  and  _279
REMARK  109  A    between atoms: _279  and  _280
REMARK  110  A    between atoms: _279  and  _282
REMARK  111  A    between atoms: _282  and  _283
REMARK  112  A    between atoms: _285  and  _287
REMARK  113  A    between atoms: _287  and  _288
REMARK  114  A    between atoms: _287  and  _290
REMARK  115  A    between atoms: _290  and  _291
REMARK  116  A    between atoms: _291  and  _292
REMARK  117  A    between atoms: _292  and  _293
REMARK  118  A    between atoms: _293  and  _294
REMARK  119  A    between atoms: _298  and  _300
REMARK  120  A    between atoms: _300  and  _301
REMARK  121  A    between atoms: _300  and  _303
REMARK  122  A    between atoms: _303  and  _304
REMARK  123  A    between atoms: _306  and  _308
REMARK  124  A    between atoms: _308  and  _309
REMARK  125  A    between atoms: _308  and  _311
REMARK  126  A    between atoms: _311  and  _312
REMARK  127  A    between atoms: _315  and  _317
REMARK  128  A    between atoms: _317  and  _318
REMARK  129  A    between atoms: _317  and  _320
REMARK  130  A    between atoms: _320  and  _321
REMARK  131  A    between atoms: _326  and  _328
REMARK  132  A    between atoms: _328  and  _329
REMARK  133  A    between atoms: _328  and  _331
REMARK  134  A    between atoms: _331  and  _332
REMARK  135  A    between atoms: _335  and  _337
REMARK  136  A    between atoms: _337  and  _338
REMARK  137  A    between atoms: _337  and  _340
REMARK  138  A    between atoms: _340  and  _341
REMARK  139  A    between atoms: _344  and  _346
REMARK  140  A    between atoms: _346  and  _347
REMARK  141  A    between atoms: _346  and  _349
REMARK  142  A    between atoms: _349  and  _350
REMARK  143  A    between atoms: _353  and  _355
REMARK  144  A    between atoms: _355  and  _356
REMARK  145  A    between atoms: _355  and  _358
REMARK  146  A    between atoms: _358  and  _359
REMARK  147  A    between atoms: _359  and  _360
REMARK  148  A    between atoms: _365  and  _367
REMARK  149  A    between atoms: _367  and  _368
REMARK  150  A    between atoms: _371  and  _373
REMARK  151  A    between atoms: _373  and  _374
REMARK  152  A    between atoms: _373  and  _376
REMARK  153  A    between atoms: _379  and  _381
REMARK  154  A    between atoms: _381  and  _382
REMARK  155  A    between atoms: _381  and  _384
REMARK  156  A    between atoms: _384  and  _385
REMARK  157  A    between atoms: _388  and  _390
REMARK  158  A    between atoms: _390  and  _391
REMARK  159  A    between atoms: _393  and  _395
REMARK  160  A    between atoms: _395  and  _396
REMARK  161  A    between atoms: _395  and  _398
REMARK  162  A    between atoms: _398  and  _399
REMARK  163  A    between atoms: _404  and  _405
REMARK  164  A    between atoms: _407  and  _409
REMARK  165  A    between atoms: _409  and  _410
REMARK  166  A    between atoms: _409  and  _412
REMARK  167  A    between atoms: _412  and  _413
REMARK  168  A    between atoms: _413  and  _414
REMARK  169  A    between atoms: _414  and  _415
REMARK  170  A    between atoms: _424  and  _426
REMARK  171  A    between atoms: _426  and  _427
REMARK  172  A    between atoms: _426  and  _429
REMARK  173  A    between atoms: _429  and  _430
REMARK  174  A    between atoms: _436  and  _438
REMARK  175  A    between atoms: _438  and  _439
REMARK  176  A    between atoms: _438  and  _441
REMARK  177  A    between atoms: _441  and  _442
REMARK  178  A    between atoms: _445  and  _447
REMARK  179  A    between atoms: _447  and  _448
REMARK  180  A    between atoms: _447  and  _450
REMARK  181  A    between atoms: _450  and  _451
REMARK  182  A    between atoms: _454  and  _456
REMARK  183  A    between atoms: _456  and  _457
REMARK  184  A    between atoms: _456  and  _459
REMARK  185  A    between atoms: _459  and  _460
REMARK  186  A    between atoms: _470  and  _472
REMARK  187  A    between atoms: _472  and  _473
REMARK  188  A    between atoms: _472  and  _475
REMARK  189  A    between atoms: _475  and  _476
REMARK  190  A    between atoms: _479  and  _481
REMARK  191  A    between atoms: _481  and  _482
REMARK  192  A    between atoms: _481  and  _484
REMARK  193  A    between atoms: _484  and  _485
REMARK  194  A    between atoms: _485  and  _486
REMARK  195  A    between atoms: _491  and  _493
REMARK  196  A    between atoms: _493  and  _494
REMARK  197  A    between atoms: _493  and  _496
REMARK  198  A    between atoms: _496  and  _497
REMARK  199  A    between atoms: _500  and  _502
REMARK  200  A    between atoms: _502  and  _503
REMARK  201  A    between atoms: _502  and  _505
REMARK  202  A    between atoms: _505  and  _506
REMARK  203  A    between atoms: _506  and  _507
REMARK  204  A    between atoms: _512  and  _514
REMARK  205  A    between atoms: _514  and  _515
REMARK  206  A    between atoms: _518  and  _520
REMARK  207  A    between atoms: _520  and  _521
REMARK  208  A    between atoms: _520  and  _523
REMARK  209  A    between atoms: _523  and  _524
REMARK  210  A    between atoms: _527  and  _529
REMARK  211  A    between atoms: _529  and  _530
REMARK  212  A    between atoms: _529  and  _532
REMARK  213  A    between atoms: _532  and  _533
REMARK  214  A    between atoms: _536  and  _538
REMARK  215  A    between atoms: _538  and  _539
REMARK  216  A    between atoms: _538  and  _541
REMARK  217  A    between atoms: _544  and  _546
REMARK  218  A    between atoms: _546  and  _547
REMARK  219  A    between atoms: _546  and  _549
REMARK  220  A    between atoms: _551  and  _553
REMARK  221  A    between atoms: _553  and  _554
REMARK  222  A    between atoms: _553  and  _556
REMARK  223  A    between atoms: _559  and  _561
REMARK  224  A    between atoms: _561  and  _562
REMARK  225  A    between atoms: _561  and  _564
REMARK  226  A    between atoms: _564  and  _565
REMARK  227  A    between atoms: _570  and  _572
REMARK  228  A    between atoms: _572  and  _573
REMARK  229  A    between atoms: _572  and  _575
REMARK  230  A    between atoms: _575  and  _576
REMARK  231  A    between atoms: _582  and  _584
REMARK  232  A    between atoms: _584  and  _585
REMARK  233  A    between atoms: _584  and  _587
REMARK  234  A    between atoms: _587  and  _588
REMARK  235  A    between atoms: _591  and  _593
REMARK  236  A    between atoms: _593  and  _594
REMARK  237  A    between atoms: _593  and  _596
REMARK  238  A    between atoms: _596  and  _597
REMARK  239  A    between atoms: _600  and  _602
REMARK  240  A    between atoms: _602  and  _603
REMARK  241  A    between atoms: _602  and  _605
REMARK  242  A    between atoms: _605  and  _606
REMARK                            x       y       z     vdW  Elec       q    Type
REMARK                         _______ _______ _______ _____ _____    ______ ____
ROOT
ATOM      1  O   HOH     1      11.124 -39.972  -9.526  0.00  0.00    +0.000 OA
ENDROOT
TORSDOF 0
REMARK  Name = ../refined-set-2016/4wn5/4wn5_pocket.pdb
REMARK  242 active torsions:
REMARK  status: ('A' for Active; 'I' for Inactive)
REMARK    1  A    between atoms: _1  and  _5
REMARK    2  A    between atoms: _5  and  _6
REMARK    3  A    between atoms: _5  and  _8
REMARK    4  A    between atoms: _8  and  _9
REMARK    5  A    between atoms: _9  and  _10
REMARK    6  A    between atoms: _10  and  _11
REMARK    7  A    between atoms: _20  and  _22
REMARK    8  A    between atoms: _22  and  _23
REMARK    9  A    between atoms: _25  and  _27
REMARK   10  A    between atoms: _27  and  _28
REMARK   11  A    between atoms: _31  and  _33
REMARK   12  A    between atoms: _33  and  _34
REMARK   13  A    between atoms: _33  and  _36
REMARK   14  A    between atoms: _36  and  _37
REMARK   15  A    between atoms: _43  and  _45
REMARK   16  A    between atoms: _45  and  _46
REMARK   17  A    between atoms: _45  and  _48
REMARK   18  A    between atoms: _48  and  _49
REMARK   19  A    between atoms: _52  and  _54
REMARK   20  A    between atoms: _54  and  _55
REMARK   21  A    between atoms: _54  and  _57
REMARK   22  A    between atoms: _57  and  _58
REMARK   23  A    between atoms: _60  and  _62
REMARK   24  A    between atoms: _62  and  _63
REMARK   25  A    between atoms: _62  and  _65
REMARK   26  A    between atoms: _65  and  _66
REMARK   27  A    between atoms: _66  and  _67
REMARK   28  A    between atoms: _67  and  _68
REMARK   29  A    between atoms: _77  and  _79
REMARK   30  A    between atoms: _79  and  _80
REMARK   31  A    between atoms: _79  and  _82
REMARK   32  A    between atoms: _82  and  _83
REMARK   33  A    between atoms: _88  and  _90
REMARK   34  A    between atoms: _90  and  _91
REMARK   35  A    between atoms: _90  and  _93
REMARK   36  A    between atoms: _93  and  _94
REMARK   37  A    between atoms: _94  and  _95
REMARK   38  A    between atoms: _97  and  _99
REMARK   39  A    between atoms: _99  and  _100
REMARK   40  A    between atoms: _99  and  _102
REMARK   41  A    between atoms: _102  and  _103
REMARK   42  A    between atoms: _109  and  _111
REMARK   43  A    between atoms: _111  and  _112
REMARK   44  A    between atoms: _111  and  _114
REMARK   45  A    between atoms: _114  and  _115
REMARK   46  A    between atoms: _120  and  _121
REMARK   47  A    between atoms: _123  and  _125
REMARK   48  A    between atoms: _125  and  _126
REMARK   49  A    between atoms: _125  and  _128
REMARK   50  A    between atoms: _130  and  _132
REMARK   51  A    between atoms: _132  and  _133
REMARK   52  A    between atoms: _132  and  _135
REMARK   53  A    between atoms: _135  and  _136
REMARK   54  A    between atoms: _139  and  _141
REMARK   55  A    between atoms: _141  and  _142
REMARK   56  A    between atoms: _141  and  _144
REMARK   57  A    between atoms: _144  and  _145
REMARK   58  A    between atoms: _145  and  _146
REMARK   59  A    between atoms: _146  and  _147
REMARK   60  A    between atoms: _156  and  _158
REMARK   61  A    between atoms: _158  and  _159
REMARK   62  A    between atoms: _158  and  _161
REMARK   63  A    between atoms: _161  and  _162
REMARK   64  A    between atoms: _165  and  _167
REMARK   65  A    between atoms: _167  and  _168
REMARK   66  A    between atoms: _167  and  _170
REMARK   67  A    between atoms: _170  and  _171
REMARK   68  A    between atoms: _171  and  _172
REMARK   69  A    between atoms: _175  and  _177
REMARK   70  A    between atoms: _177  and  _178
REMARK   71  A    between atoms: _177  and  _180
REMARK   72  A    between atoms: _183  and  _185
REMARK   73  A    between atoms: _185  and  _186
REMARK   74  A    between atoms: _189  and  _191
REMARK   75  A    between atoms: _191  and  _192
REMARK   76  A    between atoms: _191  and  _194
REMARK   77  A    between atoms: _194  and  _195
REMARK   78  A    between atoms: _200  and  _201
REMARK   79  A    between atoms: _203  and  _205
REMARK   80  A    between atoms: _205  and  _206
REMARK   81  A    between atoms: _205  and  _208
REMARK   82  A    between atoms: _208  and  _209
REMARK   83  A    between atoms: _212  and  _214
REMARK   84  A    between atoms: _214  and  _215
REMARK   85  A    between atoms: _214  and  _217
REMARK   86  A    between atoms: _217  and  _218
REMARK   87  A    between atoms: _220  and  _222
REMARK   88  A    between atoms: _222  and  _223
REMARK   89  A    between atoms: _226  and  _228
REMARK   90  A    between atoms: _228  and  _229
REMARK   91  A    between atoms: _228  and  _231
REMARK   92  A    between atoms: _231  and  _232
REMARK   93  A    between atoms: _237  and  _238
REMARK   94  A    between atoms: _240  and  _242
REMARK   95  A    between atoms: _242  and  _243
REMARK   96  A    between atoms: _242  and  _245
REMARK   97  A    between atoms: _245  and  _246
REMARK   98  A    between atoms: _251  and  _252
REMARK   99  A    between atoms: _254  and  _256
REMARK  100  A    between atoms: _256  and  _257
REMARK  101  A    between atoms: _256  and  _259
REMARK  102  A    between atoms: _259  and  _260
REMARK  103  A    between atoms: _263  and  _265
REMARK  104  A    between atoms: _265  and  _266
REMARK  105  A    between atoms: _269  and  _271
REMARK  106  A    between atoms: _271  and  _272
REMARK  107  A    between atoms: _271  and  _274
REMARK  108  A    between atoms: _277  and  _279
REMARK  109  A    between atoms: _279  and  _280
REMARK  110  A    between atoms: _279  and  _282
REMARK  111  A    between atoms: _282  and  _283
REMARK  112  A    between atoms: _285  and  _287
REMARK  113  A    between atoms: _287  and  _288
REMARK  114  A    between atoms: _287  and  _290
REMARK  115  A    between atoms: _290  and  _291
REMARK  116  A    between atoms: _291  and  _292
REMARK  117  A    between atoms: _292  and  _293
REMARK  118  A    between atoms: _293  and  _294
REMARK  119  A    between atoms: _298  and  _300
REMARK  120  A    between atoms: _300  and  _301
REMARK  121  A    between atoms: _300  and  _303
REMARK  122  A    between atoms: _303  and  _304
REMARK  123  A    between atoms: _306  and  _308
REMARK  124  A    between atoms: _308  and  _309
REMARK  125  A    between atoms: _308  and  _311
REMARK  126  A    between atoms: _311  and  _312
REMARK  127  A    between atoms: _315  and  _317
REMARK  128  A    between atoms: _317  and  _318
REMARK  129  A    between atoms: _317  and  _320
REMARK  130  A    between atoms: _320  and  _321
REMARK  131  A    between atoms: _326  and  _328
REMARK  132  A    between atoms: _328  and  _329
REMARK  133  A    between atoms: _328  and  _331
REMARK  134  A    between atoms: _331  and  _332
REMARK  135  A    between atoms: _335  and  _337
REMARK  136  A    between atoms: _337  and  _338
REMARK  137  A    between atoms: _337  and  _340
REMARK  138  A    between atoms: _340  and  _341
REMARK  139  A    between atoms: _344  and  _346
REMARK  140  A    between atoms: _346  and  _347
REMARK  141  A    between atoms: _346  and  _349
REMARK  142  A    between atoms: _349  and  _350
REMARK  143  A    between atoms: _353  and  _355
REMARK  144  A    between atoms: _355  and  _356
REMARK  145  A    between atoms: _355  and  _358
REMARK  146  A    between atoms: _358  and  _359
REMARK  147  A    between atoms: _359  and  _360
REMARK  148  A    between atoms: _365  and  _367
REMARK  149  A    between atoms: _367  and  _368
REMARK  150  A    between atoms: _371  and  _373
REMARK  151  A    between atoms: _373  and  _374
REMARK  152  A    between atoms: _373  and  _376
REMARK  153  A    between atoms: _379  and  _381
REMARK  154  A    between atoms: _381  and  _382
REMARK  155  A    between atoms: _381  and  _384
REMARK  156  A    between atoms: _384  and  _385
REMARK  157  A    between atoms: _388  and  _390
REMARK  158  A    between atoms: _390  and  _391
REMARK  159  A    between atoms: _393  and  _395
REMARK  160  A    between atoms: _395  and  _396
REMARK  161  A    between atoms: _395  and  _398
REMARK  162  A    between atoms: _398  and  _399
REMARK  163  A    between atoms: _404  and  _405
REMARK  164  A    between atoms: _407  and  _409
REMARK  165  A    between atoms: _409  and  _410
REMARK  166  A    between atoms: _409  and  _412
REMARK  167  A    between atoms: _412  and  _413
REMARK  168  A    between atoms: _413  and  _414
REMARK  169  A    between atoms: _414  and  _415
REMARK  170  A    between atoms: _424  and  _426
REMARK  171  A    between atoms: _426  and  _427
REMARK  172  A    between atoms: _426  and  _429
REMARK  173  A    between atoms: _429  and  _430
REMARK  174  A    between atoms: _436  and  _438
REMARK  175  A    between atoms: _438  and  _439
REMARK  176  A    between atoms: _438  and  _441
REMARK  177  A    between atoms: _441  and  _442
REMARK  178  A    between atoms: _445  and  _447
REMARK  179  A    between atoms: _447  and  _448
REMARK  180  A    between atoms: _447  and  _450
REMARK  181  A    between atoms: _450  and  _451
REMARK  182  A    between atoms: _454  and  _456
REMARK  183  A    between atoms: _456  and  _457
REMARK  184  A    between atoms: _456  and  _459
REMARK  185  A    between atoms: _459  and  _460
REMARK  186  A    between atoms: _470  and  _472
REMARK  187  A    between atoms: _472  and  _473
REMARK  188  A    between atoms: _472  and  _475
REMARK  189  A    between atoms: _475  and  _476
REMARK  190  A    between atoms: _479  and  _481
REMARK  191  A    between atoms: _481  and  _482
REMARK  192  A    between atoms: _481  and  _484
REMARK  193  A    between atoms: _484  and  _485
REMARK  194  A    between atoms: _485  and  _486
REMARK  195  A    between atoms: _491  and  _493
REMARK  196  A    between atoms: _493  and  _494
REMARK  197  A    between atoms: _493  and  _496
REMARK  198  A    between atoms: _496  and  _497
REMARK  199  A    between atoms: _500  and  _502
REMARK  200  A    between atoms: _502  and  _503
REMARK  201  A    between atoms: _502  and  _505
REMARK  202  A    between atoms: _505  and  _506
REMARK  203  A    between atoms: _506  and  _507
REMARK  204  A    between atoms: _512  and  _514
REMARK  205  A    between atoms: _514  and  _515
REMARK  206  A    between atoms: _518  and  _520
REMARK  207  A    between atoms: _520  and  _521
REMARK  208  A    between atoms: _520  and  _523
REMARK  209  A    between atoms: _523  and  _524
REMARK  210  A    between atoms: _527  and  _529
REMARK  211  A    between atoms: _529  and  _530
REMARK  212  A    between atoms: _529  and  _532
REMARK  213  A    between atoms: _532  and  _533
REMARK  214  A    between atoms: _536  and  _538
REMARK  215  A    between atoms: _538  and  _539
REMARK  216  A    between atoms: _538  and  _541
REMARK  217  A    between atoms: _544  and  _546
REMARK  218  A    between atoms: _546  and  _547
REMARK  219  A    between atoms: _546  and  _549
REMARK  220  A    between atoms: _551  and  _553
REMARK  221  A    between atoms: _553  and  _554
REMARK  222  A    between atoms: _553  and  _556
REMARK  223  A    between atoms: _559  and  _561
REMARK  224  A    between atoms: _561  and  _562
REMARK  225  A    between atoms: _561  and  _564
REMARK  226  A    between atoms: _564  and  _565
REMARK  227  A    between atoms: _570  and  _572
REMARK  228  A    between atoms: _572  and  _573
REMARK  229  A    between atoms: _572  and  _575
REMARK  230  A    between atoms: _575  and  _576
REMARK  231  A    between atoms: _582  and  _584
REMARK  232  A    between atoms: _584  and  _585
REMARK  233  A    between atoms: _584  and  _587
REMARK  234  A    between atoms: _587  and  _588
REMARK  235  A    between atoms: _591  and  _593
REMARK  236  A    between atoms: _593  and  _594
REMARK  237  A    between atoms: _593  and  _596
REMARK  238  A    between atoms: _596  and  _597
REMARK  239  A    between atoms: _600  and  _602
REMARK  240  A    between atoms: _602  and  _603
REMARK  241  A    between atoms: _602  and  _605
REMARK  242  A    between atoms: _605  and  _606
REMARK                            x       y       z     vdW  Elec       q    Type
REMARK                         _______ _______ _______ _____ _____    ______ ____
ROOT
ATOM      1  O   HOH     1      12.103 -40.535 -12.084  0.00  0.00    +0.000 OA
ENDROOT
TORSDOF 0
