REMARK  Name = ../refined-set-2016/2g8r/2g8r_pocket.pdb
REMARK  123 active torsions:
REMARK  status: ('A' for Active; 'I' for Inactive)
REMARK    1  A    between atoms: _1  and  _3
REMARK    2  A    between atoms: _3  and  _4
REMARK    3  A    between atoms: _3  and  _6
REMARK    4  A    between atoms: _6  and  _7
REMARK    5  A    between atoms: _13  and  _15
REMARK    6  A    between atoms: _15  and  _16
REMARK    7  A    between atoms: _15  and  _18
REMARK    8  A    between atoms: _18  and  _19
REMARK    9  A    between atoms: _19  and  _20
REMARK   10  A    between atoms: _25  and  _27
REMARK   11  A    between atoms: _27  and  _28
REMARK   12  A    between atoms: _27  and  _30
REMARK   13  A    between atoms: _30  and  _31
REMARK   14  A    between atoms: _36  and  _38
REMARK   15  A    between atoms: _38  and  _39
REMARK   16  A    between atoms: _38  and  _41
REMARK   17  A    between atoms: _41  and  _42
REMARK   18  A    between atoms: _42  and  _43
REMARK   19  A    between atoms: _45  and  _47
REMARK   20  A    between atoms: _47  and  _48
REMARK   21  A    between atoms: _47  and  _50
REMARK   22  A    between atoms: _50  and  _51
REMARK   23  A    between atoms: _54  and  _56
REMARK   24  A    between atoms: _56  and  _57
REMARK   25  A    between atoms: _56  and  _59
REMARK   26  A    between atoms: _59  and  _60
REMARK   27  A    between atoms: _60  and  _61
REMARK   28  A    between atoms: _61  and  _62
REMARK   29  A    between atoms: _71  and  _73
REMARK   30  A    between atoms: _73  and  _74
REMARK   31  A    between atoms: _73  and  _76
REMARK   32  A    between atoms: _76  and  _77
REMARK   33  A    between atoms: _77  and  _78
REMARK   34  A    between atoms: _78  and  _79
REMARK   35  A    between atoms: _79  and  _80
REMARK   36  A    between atoms: _85  and  _86
REMARK   37  A    between atoms: _91  and  _93
REMARK   38  A    between atoms: _93  and  _94
REMARK   39  A    between atoms: _93  and  _96
REMARK   40  A    between atoms: _99  and  _101
REMARK   41  A    between atoms: _101  and  _102
REMARK   42  A    between atoms: _101  and  _104
REMARK   43  A    between atoms: _104  and  _105
REMARK   44  A    between atoms: _110  and  _112
REMARK   45  A    between atoms: _112  and  _113
REMARK   46  A    between atoms: _112  and  _115
REMARK   47  A    between atoms: _115  and  _116
REMARK   48  A    between atoms: _119  and  _121
REMARK   49  A    between atoms: _121  and  _122
REMARK   50  A    between atoms: _121  and  _124
REMARK   51  A    between atoms: _124  and  _125
REMARK   52  A    between atoms: _131  and  _133
REMARK   53  A    between atoms: _133  and  _134
REMARK   54  A    between atoms: _133  and  _136
REMARK   55  A    between atoms: _136  and  _137
REMARK   56  A    between atoms: _137  and  _185
REMARK   57  A    between atoms: _138  and  _140
REMARK   58  A    between atoms: _140  and  _141
REMARK   59  A    between atoms: _140  and  _143
REMARK   60  A    between atoms: _143  and  _144
REMARK   61  A    between atoms: _144  and  _145
REMARK   62  A    between atoms: _145  and  _146
REMARK   63  A    between atoms: _146  and  _147
REMARK   64  A    between atoms: _151  and  _153
REMARK   65  A    between atoms: _153  and  _154
REMARK   66  A    between atoms: _153  and  _156
REMARK   67  A    between atoms: _156  and  _157
REMARK   68  A    between atoms: _162  and  _164
REMARK   69  A    between atoms: _164  and  _165
REMARK   70  A    between atoms: _167  and  _169
REMARK   71  A    between atoms: _169  and  _170
REMARK   72  A    between atoms: _169  and  _172
REMARK   73  A    between atoms: _172  and  _173
REMARK   74  A    between atoms: _173  and  _174
REMARK   75  A    between atoms: _179  and  _181
REMARK   76  A    between atoms: _181  and  _182
REMARK   77  A    between atoms: _181  and  _184
REMARK   78  A    between atoms: _184  and  _185
REMARK   79  A    between atoms: _186  and  _188
REMARK   80  A    between atoms: _188  and  _189
REMARK   81  A    between atoms: _188  and  _191
REMARK   82  A    between atoms: _191  and  _192
REMARK   83  A    between atoms: _195  and  _197
REMARK   84  A    between atoms: _197  and  _198
REMARK   85  A    between atoms: _197  and  _200
REMARK   86  A    between atoms: _200  and  _201
REMARK   87  A    between atoms: _204  and  _206
REMARK   88  A    between atoms: _206  and  _207
REMARK   89  A    between atoms: _206  and  _209
REMARK   90  A    between atoms: _209  and  _210
REMARK   91  A    between atoms: _213  and  _215
REMARK   92  A    between atoms: _215  and  _216
REMARK   93  A    between atoms: _215  and  _218
REMARK   94  A    between atoms: _220  and  _222
REMARK   95  A    between atoms: _222  and  _223
REMARK   96  A    between atoms: _222  and  _225
REMARK   97  A    between atoms: _225  and  _226
REMARK   98  A    between atoms: _226  and  _227
REMARK   99  A    between atoms: _227  and  _228
REMARK  100  A    between atoms: _237  and  _239
REMARK  101  A    between atoms: _239  and  _240
REMARK  102  A    between atoms: _239  and  _242
REMARK  103  A    between atoms: _242  and  _243
REMARK  104  A    between atoms: _246  and  _248
REMARK  105  A    between atoms: _248  and  _249
REMARK  106  A    between atoms: _252  and  _254
REMARK  107  A    between atoms: _254  and  _255
REMARK  108  A    between atoms: _254  and  _257
REMARK  109  A    between atoms: _257  and  _258
REMARK  110  A    between atoms: _263  and  _265
REMARK  111  A    between atoms: _265  and  _266
REMARK  112  A    between atoms: _265  and  _268
REMARK  113  A    between atoms: _268  and  _269
REMARK  114  A    between atoms: _275  and  _277
REMARK  115  A    between atoms: _277  and  _278
REMARK  116  A    between atoms: _277  and  _280
REMARK  117  A    between atoms: _280  and  _281
REMARK  118  A    between atoms: _284  and  _286
REMARK  119  A    between atoms: _286  and  _287
REMARK  120  A    between atoms: _290  and  _292
REMARK  121  A    between atoms: _292  and  _293
REMARK  122  A    between atoms: _292  and  _295
REMARK  123  A    between atoms: _295  and  _296
REMARK                            x       y       z     vdW  Elec       q    Type
REMARK                         _______ _______ _______ _____ _____    ______ ____
ROOT
ATOM      1  CB  PHE A   1      30.396  -6.919  23.291  0.00  0.00    +0.051 C 
ENDROOT
BRANCH   1   2
ATOM      2  CG  PHE A   1      29.693  -5.603  23.140  0.00  0.00    -0.020 A 
ATOM      3  CD2 PHE A   1      28.372  -5.452  23.554  0.00  0.00    -0.004 A 
ATOM      4  CE2 PHE A   1      27.720  -4.225  23.444  0.00  0.00    -0.000 A 
ATOM      5  CZ  PHE A   1      28.408  -3.121  22.914  0.00  0.00    -0.000 A 
ATOM      6  CE1 PHE A   1      29.736  -3.272  22.497  0.00  0.00    -0.000 A 
ATOM      7  CD1 PHE A   1      30.374  -4.502  22.629  0.00  0.00    -0.004 A 
ENDBRANCH   1   2
BRANCH   1   8
ATOM      8  CA  PHE A   1      31.099  -7.059  24.652  0.00  0.00    +0.137 C 
BRANCH   8   9
ATOM      9  N   PHE A   1      31.770  -8.347  24.803  0.00  0.00    -0.239 NA
ATOM     10  H   PHE A   1      31.734  -9.036  24.025  0.00  0.00    +0.142 HD
ENDBRANCH   8   9
BRANCH   8  11
ATOM     11  C   PHE A   1      30.117  -6.799  25.795  0.00  0.00    +0.224 C 
ATOM     12  O   PHE A   1      30.125  -5.722  26.388  0.00  0.00    -0.287 OA
ENDBRANCH   8  11
ENDBRANCH   1   8
TORSDOF 4
REMARK  Name = ../refined-set-2016/2g8r/2g8r_pocket.pdb
REMARK  123 active torsions:
REMARK  status: ('A' for Active; 'I' for Inactive)
REMARK    1  A    between atoms: _1  and  _3
REMARK    2  A    between atoms: _3  and  _4
REMARK    3  A    between atoms: _3  and  _6
REMARK    4  A    between atoms: _6  and  _7
REMARK    5  A    between atoms: _13  and  _15
REMARK    6  A    between atoms: _15  and  _16
REMARK    7  A    between atoms: _15  and  _18
REMARK    8  A    between atoms: _18  and  _19
REMARK    9  A    between atoms: _19  and  _20
REMARK   10  A    between atoms: _25  and  _27
REMARK   11  A    between atoms: _27  and  _28
REMARK   12  A    between atoms: _27  and  _30
REMARK   13  A    between atoms: _30  and  _31
REMARK   14  A    between atoms: _36  and  _38
REMARK   15  A    between atoms: _38  and  _39
REMARK   16  A    between atoms: _38  and  _41
REMARK   17  A    between atoms: _41  and  _42
REMARK   18  A    between atoms: _42  and  _43
REMARK   19  A    between atoms: _45  and  _47
REMARK   20  A    between atoms: _47  and  _48
REMARK   21  A    between atoms: _47  and  _50
REMARK   22  A    between atoms: _50  and  _51
REMARK   23  A    between atoms: _54  and  _56
REMARK   24  A    between atoms: _56  and  _57
REMARK   25  A    between atoms: _56  and  _59
REMARK   26  A    between atoms: _59  and  _60
REMARK   27  A    between atoms: _60  and  _61
REMARK   28  A    between atoms: _61  and  _62
REMARK   29  A    between atoms: _71  and  _73
REMARK   30  A    between atoms: _73  and  _74
REMARK   31  A    between atoms: _73  and  _76
REMARK   32  A    between atoms: _76  and  _77
REMARK   33  A    between atoms: _77  and  _78
REMARK   34  A    between atoms: _78  and  _79
REMARK   35  A    between atoms: _79  and  _80
REMARK   36  A    between atoms: _85  and  _86
REMARK   37  A    between atoms: _91  and  _93
REMARK   38  A    between atoms: _93  and  _94
REMARK   39  A    between atoms: _93  and  _96
REMARK   40  A    between atoms: _99  and  _101
REMARK   41  A    between atoms: _101  and  _102
REMARK   42  A    between atoms: _101  and  _104
REMARK   43  A    between atoms: _104  and  _105
REMARK   44  A    between atoms: _110  and  _112
REMARK   45  A    between atoms: _112  and  _113
REMARK   46  A    between atoms: _112  and  _115
REMARK   47  A    between atoms: _115  and  _116
REMARK   48  A    between atoms: _119  and  _121
REMARK   49  A    between atoms: _121  and  _122
REMARK   50  A    between atoms: _121  and  _124
REMARK   51  A    between atoms: _124  and  _125
REMARK   52  A    between atoms: _131  and  _133
REMARK   53  A    between atoms: _133  and  _134
REMARK   54  A    between atoms: _133  and  _136
REMARK   55  A    between atoms: _136  and  _137
REMARK   56  A    between atoms: _137  and  _185
REMARK   57  A    between atoms: _138  and  _140
REMARK   58  A    between atoms: _140  and  _141
REMARK   59  A    between atoms: _140  and  _143
REMARK   60  A    between atoms: _143  and  _144
REMARK   61  A    between atoms: _144  and  _145
REMARK   62  A    between atoms: _145  and  _146
REMARK   63  A    between atoms: _146  and  _147
REMARK   64  A    between atoms: _151  and  _153
REMARK   65  A    between atoms: _153  and  _154
REMARK   66  A    between atoms: _153  and  _156
REMARK   67  A    between atoms: _156  and  _157
REMARK   68  A    between atoms: _162  and  _164
REMARK   69  A    between atoms: _164  and  _165
REMARK   70  A    between atoms: _167  and  _169
REMARK   71  A    between atoms: _169  and  _170
REMARK   72  A    between atoms: _169  and  _172
REMARK   73  A    between atoms: _172  and  _173
REMARK   74  A    between atoms: _173  and  _174
REMARK   75  A    between atoms: _179  and  _181
REMARK   76  A    between atoms: _181  and  _182
REMARK   77  A    between atoms: _181  and  _184
REMARK   78  A    between atoms: _184  and  _185
REMARK   79  A    between atoms: _186  and  _188
REMARK   80  A    between atoms: _188  and  _189
REMARK   81  A    between atoms: _188  and  _191
REMARK   82  A    between atoms: _191  and  _192
REMARK   83  A    between atoms: _195  and  _197
REMARK   84  A    between atoms: _197  and  _198
REMARK   85  A    between atoms: _197  and  _200
REMARK   86  A    between atoms: _200  and  _201
REMARK   87  A    between atoms: _204  and  _206
REMARK   88  A    between atoms: _206  and  _207
REMARK   89  A    between atoms: _206  and  _209
REMARK   90  A    between atoms: _209  and  _210
REMARK   91  A    between atoms: _213  and  _215
REMARK   92  A    between atoms: _215  and  _216
REMARK   93  A    between atoms: _215  and  _218
REMARK   94  A    between atoms: _220  and  _222
REMARK   95  A    between atoms: _222  and  _223
REMARK   96  A    between atoms: _222  and  _225
REMARK   97  A    between atoms: _225  and  _226
REMARK   98  A    between atoms: _226  and  _227
REMARK   99  A    between atoms: _227  and  _228
REMARK  100  A    between atoms: _237  and  _239
REMARK  101  A    between atoms: _239  and  _240
REMARK  102  A    between atoms: _239  and  _242
REMARK  103  A    between atoms: _242  and  _243
REMARK  104  A    between atoms: _246  and  _248
REMARK  105  A    between atoms: _248  and  _249
REMARK  106  A    between atoms: _252  and  _254
REMARK  107  A    between atoms: _254  and  _255
REMARK  108  A    between atoms: _254  and  _257
REMARK  109  A    between atoms: _257  and  _258
REMARK  110  A    between atoms: _263  and  _265
REMARK  111  A    between atoms: _265  and  _266
REMARK  112  A    between atoms: _265  and  _268
REMARK  113  A    between atoms: _268  and  _269
REMARK  114  A    between atoms: _275  and  _277
REMARK  115  A    between atoms: _277  and  _278
REMARK  116  A    between atoms: _277  and  _280
REMARK  117  A    between atoms: _280  and  _281
REMARK  118  A    between atoms: _284  and  _286
REMARK  119  A    between atoms: _286  and  _287
REMARK  120  A    between atoms: _290  and  _292
REMARK  121  A    between atoms: _292  and  _293
REMARK  122  A    between atoms: _292  and  _295
REMARK  123  A    between atoms: _295  and  _296
REMARK                            x       y       z     vdW  Elec       q    Type
REMARK                         _______ _______ _______ _____ _____    ______ ____
ROOT
ATOM      1  C   GLN A   1      31.933  -3.730  28.949  0.00  0.00    +0.238 C 
ATOM      2  O   GLN A   1      32.306  -2.660  29.442  0.00  0.00    -0.274 OA
ATOM      3  N   HIS A   2      30.756  -3.868  28.342  0.00  0.00    -0.298 N 
ATOM      4  H   HIS A   2      30.353  -4.815  28.192  0.00  0.00    +0.150 HD
ENDROOT
BRANCH   1   5
ATOM      5  CA  GLN A   1      32.836  -4.964  28.996  0.00  0.00    +0.145 C 
BRANCH   5   6
ATOM      6  N   GLN A   1      32.087  -6.219  28.983  0.00  0.00    -0.238 NA
ATOM      7  H   GLN A   1      32.021  -6.777  28.108  0.00  0.00    +0.142 HD
ENDBRANCH   5   6
BRANCH   5   8
ATOM      8  CB  GLN A   1      33.830  -4.932  27.832  0.00  0.00    +0.036 C 
BRANCH   8   9
ATOM      9  CG  GLN A   1      34.967  -5.942  27.985  0.00  0.00    +0.087 C 
BRANCH   9  10
ATOM     10  CD  GLN A   1      36.131  -5.711  27.026  0.00  0.00    +0.219 C 
ATOM     11  OE1 GLN A   1      37.286  -5.982  27.370  0.00  0.00    -0.275 OA
ATOM     12  NE2 GLN A   1      35.837  -5.223  25.826  0.00  0.00    -0.329 N 
ATOM     13 HE21 GLN A   1      34.850  -5.009  25.579  0.00  0.00    +0.145 HD
ATOM     14 HE22 GLN A   1      36.594  -5.055  25.133  0.00  0.00    +0.145 HD
ENDBRANCH   9  10
ENDBRANCH   8   9
ENDBRANCH   5   8
ENDBRANCH   1   5
BRANCH   3  15
ATOM     15  CA  HIS A   2      30.034  -2.681  27.888  0.00  0.00    +0.143 C 
BRANCH  15  16
ATOM     16  C   HIS A   2      28.564  -2.580  28.245  0.00  0.00    +0.227 C 
ATOM     17  O   HIS A   2      27.964  -1.534  28.029  0.00  0.00    -0.286 OA
ENDBRANCH  15  16
BRANCH  15  18
ATOM     18  CB  HIS A   2      30.225  -2.509  26.379  0.00  0.00    +0.075 C 
BRANCH  18  19
ATOM     19  CG  HIS A   2      31.636  -2.212  25.994  0.00  0.00    +0.082 A 
ATOM     20  ND1 HIS A   2      32.319  -1.109  26.462  0.00  0.00    -0.227 NA
ATOM     21  CE1 HIS A   2      33.534  -1.098  25.946  0.00  0.00    +0.199 A 
ATOM     22  NE2 HIS A   2      33.676  -2.176  25.194  0.00  0.00    -0.221 NA
ATOM     23  CD2 HIS A   2      32.502  -2.885  25.202  0.00  0.00    +0.115 A 
ENDBRANCH  18  19
ENDBRANCH  15  18
ENDBRANCH   3  15
TORSDOF 9
REMARK  Name = ../refined-set-2016/2g8r/2g8r_pocket.pdb
REMARK  123 active torsions:
REMARK  status: ('A' for Active; 'I' for Inactive)
REMARK    1  A    between atoms: _1  and  _3
REMARK    2  A    between atoms: _3  and  _4
REMARK    3  A    between atoms: _3  and  _6
REMARK    4  A    between atoms: _6  and  _7
REMARK    5  A    between atoms: _13  and  _15
REMARK    6  A    between atoms: _15  and  _16
REMARK    7  A    between atoms: _15  and  _18
REMARK    8  A    between atoms: _18  and  _19
REMARK    9  A    between atoms: _19  and  _20
REMARK   10  A    between atoms: _25  and  _27
REMARK   11  A    between atoms: _27  and  _28
REMARK   12  A    between atoms: _27  and  _30
REMARK   13  A    between atoms: _30  and  _31
REMARK   14  A    between atoms: _36  and  _38
REMARK   15  A    between atoms: _38  and  _39
REMARK   16  A    between atoms: _38  and  _41
REMARK   17  A    between atoms: _41  and  _42
REMARK   18  A    between atoms: _42  and  _43
REMARK   19  A    between atoms: _45  and  _47
REMARK   20  A    between atoms: _47  and  _48
REMARK   21  A    between atoms: _47  and  _50
REMARK   22  A    between atoms: _50  and  _51
REMARK   23  A    between atoms: _54  and  _56
REMARK   24  A    between atoms: _56  and  _57
REMARK   25  A    between atoms: _56  and  _59
REMARK   26  A    between atoms: _59  and  _60
REMARK   27  A    between atoms: _60  and  _61
REMARK   28  A    between atoms: _61  and  _62
REMARK   29  A    between atoms: _71  and  _73
REMARK   30  A    between atoms: _73  and  _74
REMARK   31  A    between atoms: _73  and  _76
REMARK   32  A    between atoms: _76  and  _77
REMARK   33  A    between atoms: _77  and  _78
REMARK   34  A    between atoms: _78  and  _79
REMARK   35  A    between atoms: _79  and  _80
REMARK   36  A    between atoms: _85  and  _86
REMARK   37  A    between atoms: _91  and  _93
REMARK   38  A    between atoms: _93  and  _94
REMARK   39  A    between atoms: _93  and  _96
REMARK   40  A    between atoms: _99  and  _101
REMARK   41  A    between atoms: _101  and  _102
REMARK   42  A    between atoms: _101  and  _104
REMARK   43  A    between atoms: _104  and  _105
REMARK   44  A    between atoms: _110  and  _112
REMARK   45  A    between atoms: _112  and  _113
REMARK   46  A    between atoms: _112  and  _115
REMARK   47  A    between atoms: _115  and  _116
REMARK   48  A    between atoms: _119  and  _121
REMARK   49  A    between atoms: _121  and  _122
REMARK   50  A    between atoms: _121  and  _124
REMARK   51  A    between atoms: _124  and  _125
REMARK   52  A    between atoms: _131  and  _133
REMARK   53  A    between atoms: _133  and  _134
REMARK   54  A    between atoms: _133  and  _136
REMARK   55  A    between atoms: _136  and  _137
REMARK   56  A    between atoms: _137  and  _185
REMARK   57  A    between atoms: _138  and  _140
REMARK   58  A    between atoms: _140  and  _141
REMARK   59  A    between atoms: _140  and  _143
REMARK   60  A    between atoms: _143  and  _144
REMARK   61  A    between atoms: _144  and  _145
REMARK   62  A    between atoms: _145  and  _146
REMARK   63  A    between atoms: _146  and  _147
REMARK   64  A    between atoms: _151  and  _153
REMARK   65  A    between atoms: _153  and  _154
REMARK   66  A    between atoms: _153  and  _156
REMARK   67  A    between atoms: _156  and  _157
REMARK   68  A    between atoms: _162  and  _164
REMARK   69  A    between atoms: _164  and  _165
REMARK   70  A    between atoms: _167  and  _169
REMARK   71  A    between atoms: _169  and  _170
REMARK   72  A    between atoms: _169  and  _172
REMARK   73  A    between atoms: _172  and  _173
REMARK   74  A    between atoms: _173  and  _174
REMARK   75  A    between atoms: _179  and  _181
REMARK   76  A    between atoms: _181  and  _182
REMARK   77  A    between atoms: _181  and  _184
REMARK   78  A    between atoms: _184  and  _185
REMARK   79  A    between atoms: _186  and  _188
REMARK   80  A    between atoms: _188  and  _189
REMARK   81  A    between atoms: _188  and  _191
REMARK   82  A    between atoms: _191  and  _192
REMARK   83  A    between atoms: _195  and  _197
REMARK   84  A    between atoms: _197  and  _198
REMARK   85  A    between atoms: _197  and  _200
REMARK   86  A    between atoms: _200  and  _201
REMARK   87  A    between atoms: _204  and  _206
REMARK   88  A    between atoms: _206  and  _207
REMARK   89  A    between atoms: _206  and  _209
REMARK   90  A    between atoms: _209  and  _210
REMARK   91  A    between atoms: _213  and  _215
REMARK   92  A    between atoms: _215  and  _216
REMARK   93  A    between atoms: _215  and  _218
REMARK   94  A    between atoms: _220  and  _222
REMARK   95  A    between atoms: _222  and  _223
REMARK   96  A    between atoms: _222  and  _225
REMARK   97  A    between atoms: _225  and  _226
REMARK   98  A    between atoms: _226  and  _227
REMARK   99  A    between atoms: _227  and  _228
REMARK  100  A    between atoms: _237  and  _239
REMARK  101  A    between atoms: _239  and  _240
REMARK  102  A    between atoms: _239  and  _242
REMARK  103  A    between atoms: _242  and  _243
REMARK  104  A    between atoms: _246  and  _248
REMARK  105  A    between atoms: _248  and  _249
REMARK  106  A    between atoms: _252  and  _254
REMARK  107  A    between atoms: _254  and  _255
REMARK  108  A    between atoms: _254  and  _257
REMARK  109  A    between atoms: _257  and  _258
REMARK  110  A    between atoms: _263  and  _265
REMARK  111  A    between atoms: _265  and  _266
REMARK  112  A    between atoms: _265  and  _268
REMARK  113  A    between atoms: _268  and  _269
REMARK  114  A    between atoms: _275  and  _277
REMARK  115  A    between atoms: _277  and  _278
REMARK  116  A    between atoms: _277  and  _280
REMARK  117  A    between atoms: _280  and  _281
REMARK  118  A    between atoms: _284  and  _286
REMARK  119  A    between atoms: _286  and  _287
REMARK  120  A    between atoms: _290  and  _292
REMARK  121  A    between atoms: _292  and  _293
REMARK  122  A    between atoms: _292  and  _295
REMARK  123  A    between atoms: _295  and  _296
REMARK                            x       y       z     vdW  Elec       q    Type
REMARK                         _______ _______ _______ _____ _____    ______ ____
ROOT
ATOM      1  CA  MET A   1      35.820  -1.655  36.090  0.00  0.00    +0.134 C 
ENDROOT
BRANCH   1   2
ATOM      2  N   MET A   1      34.625  -1.275  36.839  0.00  0.00    -0.239 NA
ATOM      3  H   MET A   1      34.576  -0.344  37.301  0.00  0.00    +0.142 HD
ENDBRANCH   1   2
BRANCH   1   4
ATOM      4  C   MET A   1      36.466  -2.897  36.724  0.00  0.00    +0.224 C 
ATOM      5  O   MET A   1      36.929  -3.790  36.020  0.00  0.00    -0.287 OA
ENDBRANCH   1   4
BRANCH   1   6
ATOM      6  CB  MET A   1      36.811  -0.493  36.016  0.00  0.00    +0.037 C 
BRANCH   6   7
ATOM      7  CG  MET A   1      36.299   0.700  35.218  0.00  0.00    +0.059 C 
BRANCH   7   8
ATOM      8  SD  MET A   1      36.005   0.295  33.485  0.00  0.00    -0.139 S 
ATOM      9  CE  MET A   1      37.688   0.250  32.862  0.00  0.00    +0.069 C 
ENDBRANCH   7   8
ENDBRANCH   6   7
ENDBRANCH   1   6
TORSDOF 5
REMARK  Name = ../refined-set-2016/2g8r/2g8r_pocket.pdb
REMARK  123 active torsions:
REMARK  status: ('A' for Active; 'I' for Inactive)
REMARK    1  A    between atoms: _1  and  _3
REMARK    2  A    between atoms: _3  and  _4
REMARK    3  A    between atoms: _3  and  _6
REMARK    4  A    between atoms: _6  and  _7
REMARK    5  A    between atoms: _13  and  _15
REMARK    6  A    between atoms: _15  and  _16
REMARK    7  A    between atoms: _15  and  _18
REMARK    8  A    between atoms: _18  and  _19
REMARK    9  A    between atoms: _19  and  _20
REMARK   10  A    between atoms: _25  and  _27
REMARK   11  A    between atoms: _27  and  _28
REMARK   12  A    between atoms: _27  and  _30
REMARK   13  A    between atoms: _30  and  _31
REMARK   14  A    between atoms: _36  and  _38
REMARK   15  A    between atoms: _38  and  _39
REMARK   16  A    between atoms: _38  and  _41
REMARK   17  A    between atoms: _41  and  _42
REMARK   18  A    between atoms: _42  and  _43
REMARK   19  A    between atoms: _45  and  _47
REMARK   20  A    between atoms: _47  and  _48
REMARK   21  A    between atoms: _47  and  _50
REMARK   22  A    between atoms: _50  and  _51
REMARK   23  A    between atoms: _54  and  _56
REMARK   24  A    between atoms: _56  and  _57
REMARK   25  A    between atoms: _56  and  _59
REMARK   26  A    between atoms: _59  and  _60
REMARK   27  A    between atoms: _60  and  _61
REMARK   28  A    between atoms: _61  and  _62
REMARK   29  A    between atoms: _71  and  _73
REMARK   30  A    between atoms: _73  and  _74
REMARK   31  A    between atoms: _73  and  _76
REMARK   32  A    between atoms: _76  and  _77
REMARK   33  A    between atoms: _77  and  _78
REMARK   34  A    between atoms: _78  and  _79
REMARK   35  A    between atoms: _79  and  _80
REMARK   36  A    between atoms: _85  and  _86
REMARK   37  A    between atoms: _91  and  _93
REMARK   38  A    between atoms: _93  and  _94
REMARK   39  A    between atoms: _93  and  _96
REMARK   40  A    between atoms: _99  and  _101
REMARK   41  A    between atoms: _101  and  _102
REMARK   42  A    between atoms: _101  and  _104
REMARK   43  A    between atoms: _104  and  _105
REMARK   44  A    between atoms: _110  and  _112
REMARK   45  A    between atoms: _112  and  _113
REMARK   46  A    between atoms: _112  and  _115
REMARK   47  A    between atoms: _115  and  _116
REMARK   48  A    between atoms: _119  and  _121
REMARK   49  A    between atoms: _121  and  _122
REMARK   50  A    between atoms: _121  and  _124
REMARK   51  A    between atoms: _124  and  _125
REMARK   52  A    between atoms: _131  and  _133
REMARK   53  A    between atoms: _133  and  _134
REMARK   54  A    between atoms: _133  and  _136
REMARK   55  A    between atoms: _136  and  _137
REMARK   56  A    between atoms: _137  and  _185
REMARK   57  A    between atoms: _138  and  _140
REMARK   58  A    between atoms: _140  and  _141
REMARK   59  A    between atoms: _140  and  _143
REMARK   60  A    between atoms: _143  and  _144
REMARK   61  A    between atoms: _144  and  _145
REMARK   62  A    between atoms: _145  and  _146
REMARK   63  A    between atoms: _146  and  _147
REMARK   64  A    between atoms: _151  and  _153
REMARK   65  A    between atoms: _153  and  _154
REMARK   66  A    between atoms: _153  and  _156
REMARK   67  A    between atoms: _156  and  _157
REMARK   68  A    between atoms: _162  and  _164
REMARK   69  A    between atoms: _164  and  _165
REMARK   70  A    between atoms: _167  and  _169
REMARK   71  A    between atoms: _169  and  _170
REMARK   72  A    between atoms: _169  and  _172
REMARK   73  A    between atoms: _172  and  _173
REMARK   74  A    between atoms: _173  and  _174
REMARK   75  A    between atoms: _179  and  _181
REMARK   76  A    between atoms: _181  and  _182
REMARK   77  A    between atoms: _181  and  _184
REMARK   78  A    between atoms: _184  and  _185
REMARK   79  A    between atoms: _186  and  _188
REMARK   80  A    between atoms: _188  and  _189
REMARK   81  A    between atoms: _188  and  _191
REMARK   82  A    between atoms: _191  and  _192
REMARK   83  A    between atoms: _195  and  _197
REMARK   84  A    between atoms: _197  and  _198
REMARK   85  A    between atoms: _197  and  _200
REMARK   86  A    between atoms: _200  and  _201
REMARK   87  A    between atoms: _204  and  _206
REMARK   88  A    between atoms: _206  and  _207
REMARK   89  A    between atoms: _206  and  _209
REMARK   90  A    between atoms: _209  and  _210
REMARK   91  A    between atoms: _213  and  _215
REMARK   92  A    between atoms: _215  and  _216
REMARK   93  A    between atoms: _215  and  _218
REMARK   94  A    between atoms: _220  and  _222
REMARK   95  A    between atoms: _222  and  _223
REMARK   96  A    between atoms: _222  and  _225
REMARK   97  A    between atoms: _225  and  _226
REMARK   98  A    between atoms: _226  and  _227
REMARK   99  A    between atoms: _227  and  _228
REMARK  100  A    between atoms: _237  and  _239
REMARK  101  A    between atoms: _239  and  _240
REMARK  102  A    between atoms: _239  and  _242
REMARK  103  A    between atoms: _242  and  _243
REMARK  104  A    between atoms: _246  and  _248
REMARK  105  A    between atoms: _248  and  _249
REMARK  106  A    between atoms: _252  and  _254
REMARK  107  A    between atoms: _254  and  _255
REMARK  108  A    between atoms: _254  and  _257
REMARK  109  A    between atoms: _257  and  _258
REMARK  110  A    between atoms: _263  and  _265
REMARK  111  A    between atoms: _265  and  _266
REMARK  112  A    between atoms: _265  and  _268
REMARK  113  A    between atoms: _268  and  _269
REMARK  114  A    between atoms: _275  and  _277
REMARK  115  A    between atoms: _277  and  _278
REMARK  116  A    between atoms: _277  and  _280
REMARK  117  A    between atoms: _280  and  _281
REMARK  118  A    between atoms: _284  and  _286
REMARK  119  A    between atoms: _286  and  _287
REMARK  120  A    between atoms: _290  and  _292
REMARK  121  A    between atoms: _292  and  _293
REMARK  122  A    between atoms: _292  and  _295
REMARK  123  A    between atoms: _295  and  _296
REMARK                            x       y       z     vdW  Elec       q    Type
REMARK                         _______ _______ _______ _____ _____    ______ ____
ROOT
ATOM      1  CA  LEU A   1      38.787  -4.653  33.247  0.00  0.00    +0.133 C 
ENDROOT
BRANCH   1   2
ATOM      2  N   LEU A   1      38.090  -5.551  34.156  0.00  0.00    -0.239 NA
ATOM      3  H   LEU A   1      37.417  -5.157  34.844  0.00  0.00    +0.142 HD
ENDBRANCH   1   2
BRANCH   1   4
ATOM      4  C   LEU A   1      40.005  -4.019  33.914  0.00  0.00    +0.224 C 
ATOM      5  O   LEU A   1      40.660  -3.161  33.327  0.00  0.00    -0.287 OA
ENDBRANCH   1   4
BRANCH   1   6
ATOM      6  CB  LEU A   1      37.822  -3.593  32.693  0.00  0.00    +0.025 C 
BRANCH   6   7
ATOM      7  CG  LEU A   1      36.510  -4.178  32.152  0.00  0.00    +0.002 C 
ATOM      8  CD2 LEU A   1      35.687  -3.108  31.490  0.00  0.00    +0.000 C 
ATOM      9  CD1 LEU A   1      36.796  -5.301  31.172  0.00  0.00    +0.000 C 
ENDBRANCH   6   7
ENDBRANCH   1   6
TORSDOF 4
REMARK  Name = ../refined-set-2016/2g8r/2g8r_pocket.pdb
REMARK  123 active torsions:
REMARK  status: ('A' for Active; 'I' for Inactive)
REMARK    1  A    between atoms: _1  and  _3
REMARK    2  A    between atoms: _3  and  _4
REMARK    3  A    between atoms: _3  and  _6
REMARK    4  A    between atoms: _6  and  _7
REMARK    5  A    between atoms: _13  and  _15
REMARK    6  A    between atoms: _15  and  _16
REMARK    7  A    between atoms: _15  and  _18
REMARK    8  A    between atoms: _18  and  _19
REMARK    9  A    between atoms: _19  and  _20
REMARK   10  A    between atoms: _25  and  _27
REMARK   11  A    between atoms: _27  and  _28
REMARK   12  A    between atoms: _27  and  _30
REMARK   13  A    between atoms: _30  and  _31
REMARK   14  A    between atoms: _36  and  _38
REMARK   15  A    between atoms: _38  and  _39
REMARK   16  A    between atoms: _38  and  _41
REMARK   17  A    between atoms: _41  and  _42
REMARK   18  A    between atoms: _42  and  _43
REMARK   19  A    between atoms: _45  and  _47
REMARK   20  A    between atoms: _47  and  _48
REMARK   21  A    between atoms: _47  and  _50
REMARK   22  A    between atoms: _50  and  _51
REMARK   23  A    between atoms: _54  and  _56
REMARK   24  A    between atoms: _56  and  _57
REMARK   25  A    between atoms: _56  and  _59
REMARK   26  A    between atoms: _59  and  _60
REMARK   27  A    between atoms: _60  and  _61
REMARK   28  A    between atoms: _61  and  _62
REMARK   29  A    between atoms: _71  and  _73
REMARK   30  A    between atoms: _73  and  _74
REMARK   31  A    between atoms: _73  and  _76
REMARK   32  A    between atoms: _76  and  _77
REMARK   33  A    between atoms: _77  and  _78
REMARK   34  A    between atoms: _78  and  _79
REMARK   35  A    between atoms: _79  and  _80
REMARK   36  A    between atoms: _85  and  _86
REMARK   37  A    between atoms: _91  and  _93
REMARK   38  A    between atoms: _93  and  _94
REMARK   39  A    between atoms: _93  and  _96
REMARK   40  A    between atoms: _99  and  _101
REMARK   41  A    between atoms: _101  and  _102
REMARK   42  A    between atoms: _101  and  _104
REMARK   43  A    between atoms: _104  and  _105
REMARK   44  A    between atoms: _110  and  _112
REMARK   45  A    between atoms: _112  and  _113
REMARK   46  A    between atoms: _112  and  _115
REMARK   47  A    between atoms: _115  and  _116
REMARK   48  A    between atoms: _119  and  _121
REMARK   49  A    between atoms: _121  and  _122
REMARK   50  A    between atoms: _121  and  _124
REMARK   51  A    between atoms: _124  and  _125
REMARK   52  A    between atoms: _131  and  _133
REMARK   53  A    between atoms: _133  and  _134
REMARK   54  A    between atoms: _133  and  _136
REMARK   55  A    between atoms: _136  and  _137
REMARK   56  A    between atoms: _137  and  _185
REMARK   57  A    between atoms: _138  and  _140
REMARK   58  A    between atoms: _140  and  _141
REMARK   59  A    between atoms: _140  and  _143
REMARK   60  A    between atoms: _143  and  _144
REMARK   61  A    between atoms: _144  and  _145
REMARK   62  A    between atoms: _145  and  _146
REMARK   63  A    between atoms: _146  and  _147
REMARK   64  A    between atoms: _151  and  _153
REMARK   65  A    between atoms: _153  and  _154
REMARK   66  A    between atoms: _153  and  _156
REMARK   67  A    between atoms: _156  and  _157
REMARK   68  A    between atoms: _162  and  _164
REMARK   69  A    between atoms: _164  and  _165
REMARK   70  A    between atoms: _167  and  _169
REMARK   71  A    between atoms: _169  and  _170
REMARK   72  A    between atoms: _169  and  _172
REMARK   73  A    between atoms: _172  and  _173
REMARK   74  A    between atoms: _173  and  _174
REMARK   75  A    between atoms: _179  and  _181
REMARK   76  A    between atoms: _181  and  _182
REMARK   77  A    between atoms: _181  and  _184
REMARK   78  A    between atoms: _184  and  _185
REMARK   79  A    between atoms: _186  and  _188
REMARK   80  A    between atoms: _188  and  _189
REMARK   81  A    between atoms: _188  and  _191
REMARK   82  A    between atoms: _191  and  _192
REMARK   83  A    between atoms: _195  and  _197
REMARK   84  A    between atoms: _197  and  _198
REMARK   85  A    between atoms: _197  and  _200
REMARK   86  A    between atoms: _200  and  _201
REMARK   87  A    between atoms: _204  and  _206
REMARK   88  A    between atoms: _206  and  _207
REMARK   89  A    between atoms: _206  and  _209
REMARK   90  A    between atoms: _209  and  _210
REMARK   91  A    between atoms: _213  and  _215
REMARK   92  A    between atoms: _215  and  _216
REMARK   93  A    between atoms: _215  and  _218
REMARK   94  A    between atoms: _220  and  _222
REMARK   95  A    between atoms: _222  and  _223
REMARK   96  A    between atoms: _222  and  _225
REMARK   97  A    between atoms: _225  and  _226
REMARK   98  A    between atoms: _226  and  _227
REMARK   99  A    between atoms: _227  and  _228
REMARK  100  A    between atoms: _237  and  _239
REMARK  101  A    between atoms: _239  and  _240
REMARK  102  A    between atoms: _239  and  _242
REMARK  103  A    between atoms: _242  and  _243
REMARK  104  A    between atoms: _246  and  _248
REMARK  105  A    between atoms: _248  and  _249
REMARK  106  A    between atoms: _252  and  _254
REMARK  107  A    between atoms: _254  and  _255
REMARK  108  A    between atoms: _254  and  _257
REMARK  109  A    between atoms: _257  and  _258
REMARK  110  A    between atoms: _263  and  _265
REMARK  111  A    between atoms: _265  and  _266
REMARK  112  A    between atoms: _265  and  _268
REMARK  113  A    between atoms: _268  and  _269
REMARK  114  A    between atoms: _275  and  _277
REMARK  115  A    between atoms: _277  and  _278
REMARK  116  A    between atoms: _277  and  _280
REMARK  117  A    between atoms: _280  and  _281
REMARK  118  A    between atoms: _284  and  _286
REMARK  119  A    between atoms: _286  and  _287
REMARK  120  A    between atoms: _290  and  _292
REMARK  121  A    between atoms: _292  and  _293
REMARK  122  A    between atoms: _292  and  _295
REMARK  123  A    between atoms: _295  and  _296
REMARK                            x       y       z     vdW  Elec       q    Type
REMARK                         _______ _______ _______ _____ _____    ______ ____
ROOT
ATOM      1  NE  ARG A   1      45.974  -1.423  29.010  0.00  0.00    -0.265 N 
ATOM      2  HE  ARG A   1      46.247  -0.431  29.160  0.00  0.00    +0.259 HD
ATOM      3  CZ  ARG A   1      45.045  -1.672  28.088  0.00  0.00    +0.342 C 
ATOM      4  NH2 ARG A   1      44.638  -2.913  27.850  0.00  0.00    -0.292 N 
ATOM      5 HH21 ARG A   1      45.045  -3.706  28.386  0.00  0.00    +0.255 HD
ATOM      6 HH22 ARG A   1      43.912  -3.093  27.127  0.00  0.00    +0.255 HD
ATOM      7  NH1 ARG A   1      44.518  -0.672  27.399  0.00  0.00    -0.292 N 
ATOM      8 HH11 ARG A   1      44.829   0.304  27.578  0.00  0.00    +0.255 HD
ATOM      9 HH12 ARG A   1      43.793  -0.862  26.678  0.00  0.00    +0.255 HD
ENDROOT
BRANCH   1  10
ATOM     10  CD  ARG A   1      46.641  -2.438  29.828  0.00  0.00    +0.174 C 
BRANCH  10  11
ATOM     11  CG  ARG A   1      45.878  -2.782  31.106  0.00  0.00    +0.045 C 
BRANCH  11  12
ATOM     12  CB  ARG A   1      46.863  -3.048  32.248  0.00  0.00    +0.029 C 
BRANCH  12  13
ATOM     13  CA  ARG A   1      46.257  -3.500  33.590  0.00  0.00    +0.133 C 
BRANCH  13  14
ATOM     14  N   ARG A   1      45.868  -4.900  33.552  0.00  0.00    -0.239 NA
ATOM     15  H   ARG A   1      44.853  -5.121  33.502  0.00  0.00    +0.142 HD
ENDBRANCH  13  14
BRANCH  13  16
ATOM     16  C   ARG A   1      45.011  -2.696  33.953  0.00  0.00    +0.224 C 
ATOM     17  O   ARG A   1      43.923  -3.260  34.074  0.00  0.00    -0.287 OA
ENDBRANCH  13  16
ENDBRANCH  12  13
ENDBRANCH  11  12
ENDBRANCH  10  11
ENDBRANCH   1  10
TORSDOF 6
REMARK  Name = ../refined-set-2016/2g8r/2g8r_pocket.pdb
REMARK  123 active torsions:
REMARK  status: ('A' for Active; 'I' for Inactive)
REMARK    1  A    between atoms: _1  and  _3
REMARK    2  A    between atoms: _3  and  _4
REMARK    3  A    between atoms: _3  and  _6
REMARK    4  A    between atoms: _6  and  _7
REMARK    5  A    between atoms: _13  and  _15
REMARK    6  A    between atoms: _15  and  _16
REMARK    7  A    between atoms: _15  and  _18
REMARK    8  A    between atoms: _18  and  _19
REMARK    9  A    between atoms: _19  and  _20
REMARK   10  A    between atoms: _25  and  _27
REMARK   11  A    between atoms: _27  and  _28
REMARK   12  A    between atoms: _27  and  _30
REMARK   13  A    between atoms: _30  and  _31
REMARK   14  A    between atoms: _36  and  _38
REMARK   15  A    between atoms: _38  and  _39
REMARK   16  A    between atoms: _38  and  _41
REMARK   17  A    between atoms: _41  and  _42
REMARK   18  A    between atoms: _42  and  _43
REMARK   19  A    between atoms: _45  and  _47
REMARK   20  A    between atoms: _47  and  _48
REMARK   21  A    between atoms: _47  and  _50
REMARK   22  A    between atoms: _50  and  _51
REMARK   23  A    between atoms: _54  and  _56
REMARK   24  A    between atoms: _56  and  _57
REMARK   25  A    between atoms: _56  and  _59
REMARK   26  A    between atoms: _59  and  _60
REMARK   27  A    between atoms: _60  and  _61
REMARK   28  A    between atoms: _61  and  _62
REMARK   29  A    between atoms: _71  and  _73
REMARK   30  A    between atoms: _73  and  _74
REMARK   31  A    between atoms: _73  and  _76
REMARK   32  A    between atoms: _76  and  _77
REMARK   33  A    between atoms: _77  and  _78
REMARK   34  A    between atoms: _78  and  _79
REMARK   35  A    between atoms: _79  and  _80
REMARK   36  A    between atoms: _85  and  _86
REMARK   37  A    between atoms: _91  and  _93
REMARK   38  A    between atoms: _93  and  _94
REMARK   39  A    between atoms: _93  and  _96
REMARK   40  A    between atoms: _99  and  _101
REMARK   41  A    between atoms: _101  and  _102
REMARK   42  A    between atoms: _101  and  _104
REMARK   43  A    between atoms: _104  and  _105
REMARK   44  A    between atoms: _110  and  _112
REMARK   45  A    between atoms: _112  and  _113
REMARK   46  A    between atoms: _112  and  _115
REMARK   47  A    between atoms: _115  and  _116
REMARK   48  A    between atoms: _119  and  _121
REMARK   49  A    between atoms: _121  and  _122
REMARK   50  A    between atoms: _121  and  _124
REMARK   51  A    between atoms: _124  and  _125
REMARK   52  A    between atoms: _131  and  _133
REMARK   53  A    between atoms: _133  and  _134
REMARK   54  A    between atoms: _133  and  _136
REMARK   55  A    between atoms: _136  and  _137
REMARK   56  A    between atoms: _137  and  _185
REMARK   57  A    between atoms: _138  and  _140
REMARK   58  A    between atoms: _140  and  _141
REMARK   59  A    between atoms: _140  and  _143
REMARK   60  A    between atoms: _143  and  _144
REMARK   61  A    between atoms: _144  and  _145
REMARK   62  A    between atoms: _145  and  _146
REMARK   63  A    between atoms: _146  and  _147
REMARK   64  A    between atoms: _151  and  _153
REMARK   65  A    between atoms: _153  and  _154
REMARK   66  A    between atoms: _153  and  _156
REMARK   67  A    between atoms: _156  and  _157
REMARK   68  A    between atoms: _162  and  _164
REMARK   69  A    between atoms: _164  and  _165
REMARK   70  A    between atoms: _167  and  _169
REMARK   71  A    between atoms: _169  and  _170
REMARK   72  A    between atoms: _169  and  _172
REMARK   73  A    between atoms: _172  and  _173
REMARK   74  A    between atoms: _173  and  _174
REMARK   75  A    between atoms: _179  and  _181
REMARK   76  A    between atoms: _181  and  _182
REMARK   77  A    between atoms: _181  and  _184
REMARK   78  A    between atoms: _184  and  _185
REMARK   79  A    between atoms: _186  and  _188
REMARK   80  A    between atoms: _188  and  _189
REMARK   81  A    between atoms: _188  and  _191
REMARK   82  A    between atoms: _191  and  _192
REMARK   83  A    between atoms: _195  and  _197
REMARK   84  A    between atoms: _197  and  _198
REMARK   85  A    between atoms: _197  and  _200
REMARK   86  A    between atoms: _200  and  _201
REMARK   87  A    between atoms: _204  and  _206
REMARK   88  A    between atoms: _206  and  _207
REMARK   89  A    between atoms: _206  and  _209
REMARK   90  A    between atoms: _209  and  _210
REMARK   91  A    between atoms: _213  and  _215
REMARK   92  A    between atoms: _215  and  _216
REMARK   93  A    between atoms: _215  and  _218
REMARK   94  A    between atoms: _220  and  _222
REMARK   95  A    between atoms: _222  and  _223
REMARK   96  A    between atoms: _222  and  _225
REMARK   97  A    between atoms: _225  and  _226
REMARK   98  A    between atoms: _226  and  _227
REMARK   99  A    between atoms: _227  and  _228
REMARK  100  A    between atoms: _237  and  _239
REMARK  101  A    between atoms: _239  and  _240
REMARK  102  A    between atoms: _239  and  _242
REMARK  103  A    between atoms: _242  and  _243
REMARK  104  A    between atoms: _246  and  _248
REMARK  105  A    between atoms: _248  and  _249
REMARK  106  A    between atoms: _252  and  _254
REMARK  107  A    between atoms: _254  and  _255
REMARK  108  A    between atoms: _254  and  _257
REMARK  109  A    between atoms: _257  and  _258
REMARK  110  A    between atoms: _263  and  _265
REMARK  111  A    between atoms: _265  and  _266
REMARK  112  A    between atoms: _265  and  _268
REMARK  113  A    between atoms: _268  and  _269
REMARK  114  A    between atoms: _275  and  _277
REMARK  115  A    between atoms: _277  and  _278
REMARK  116  A    between atoms: _277  and  _280
REMARK  117  A    between atoms: _280  and  _281
REMARK  118  A    between atoms: _284  and  _286
REMARK  119  A    between atoms: _286  and  _287
REMARK  120  A    between atoms: _290  and  _292
REMARK  121  A    between atoms: _292  and  _293
REMARK  122  A    between atoms: _292  and  _295
REMARK  123  A    between atoms: _295  and  _296
REMARK                            x       y       z     vdW  Elec       q    Type
REMARK                         _______ _______ _______ _____ _____    ______ ____
ROOT
ATOM      1  C   VAL A   3      37.897   3.010  28.717  0.00  0.00    +0.241 C 
ATOM      2  N   ASN A   4      36.685   3.081  29.270  0.00  0.00    -0.297 N 
ATOM      3  H   ASN A   4      36.472   3.860  29.925  0.00  0.00    +0.150 HD
ATOM      4  O   VAL A   3      38.259   2.079  27.988  0.00  0.00    -0.273 OA
ENDROOT
BRANCH   2   5
ATOM      5  CA  ASN A   4      35.645   2.088  28.977  0.00  0.00    +0.158 C 
BRANCH   5   6
ATOM      6  C   ASN A   4      34.253   2.661  29.184  0.00  0.00    +0.241 C 
ATOM      7  O   ASN A   4      34.011   3.359  30.167  0.00  0.00    -0.273 OA
ATOM      8  N   THR A   5      33.340   2.353  28.270  0.00  0.00    -0.295 N 
ATOM      9  H   THR A   5      33.609   1.733  27.479  0.00  0.00    +0.150 HD
BRANCH   8  10
ATOM     10  CA  THR A   5      31.964   2.858  28.339  0.00  0.00    +0.176 C 
BRANCH  10  11
ATOM     11  C   THR A   5      30.986   1.735  28.681  0.00  0.00    +0.243 C 
ATOM     12  N   PHE A   6      30.085   2.006  29.627  0.00  0.00    -0.298 N 
ATOM     13  H   PHE A   6      30.173   2.899  30.153  0.00  0.00    +0.150 HD
ATOM     14  O   THR A   5      31.053   0.658  28.095  0.00  0.00    -0.273 OA
BRANCH  12  15
ATOM     15  CA  PHE A   6      28.984   1.113  29.959  0.00  0.00    +0.141 C 
BRANCH  15  16
ATOM     16  C   PHE A   6      27.691   1.722  29.446  0.00  0.00    +0.227 C 
ATOM     17  O   PHE A   6      27.461   2.920  29.615  0.00  0.00    -0.286 OA
ENDBRANCH  15  16
BRANCH  15  18
ATOM     18  CB  PHE A   6      28.905   0.904  31.480  0.00  0.00    +0.054 C 
BRANCH  18  19
ATOM     19  CG  PHE A   6      30.058   0.104  32.038  0.00  0.00    -0.020 A 
ATOM     20  CD2 PHE A   6      31.095   0.737  32.722  0.00  0.00    -0.004 A 
ATOM     21  CE2 PHE A   6      32.161   0.000  33.233  0.00  0.00    -0.000 A 
ATOM     22  CZ  PHE A   6      32.206  -1.379  33.055  0.00  0.00    -0.000 A 
ATOM     23  CE1 PHE A   6      31.174  -2.027  32.368  0.00  0.00    -0.000 A 
ATOM     24  CD1 PHE A   6      30.107  -1.282  31.873  0.00  0.00    -0.004 A 
ENDBRANCH  18  19
ENDBRANCH  15  18
ENDBRANCH  12  15
ENDBRANCH  10  11
BRANCH  10  25
ATOM     25  CB  THR A   5      31.560   3.523  27.005  0.00  0.00    +0.137 C 
ATOM     26  CG2 THR A   5      30.112   4.084  27.066  0.00  0.00    +0.034 C 
BRANCH  25  27
ATOM     27  OG1 THR A   5      32.484   4.585  26.713  0.00  0.00    -0.382 OA
ATOM     28  HG1 THR A   5      33.399   4.214  26.638  0.00  0.00    +0.210 HD
ENDBRANCH  25  27
ENDBRANCH  10  25
ENDBRANCH   8  10
ENDBRANCH   5   6
BRANCH   5  29
ATOM     29  CB  ASN A   4      35.842   0.847  29.852  0.00  0.00    +0.114 C 
BRANCH  29  30
ATOM     30  CG  ASN A   4      34.953  -0.295  29.451  0.00  0.00    +0.222 C 
ATOM     31  ND2 ASN A   4      33.862  -0.475  30.183  0.00  0.00    -0.329 N 
ATOM     32 HD21 ASN A   4      33.650   0.173  30.968  0.00  0.00    +0.145 HD
ATOM     33 HD22 ASN A   4      33.218  -1.264  29.972  0.00  0.00    +0.145 HD
ATOM     34  OD1 ASN A   4      35.257  -1.033  28.505  0.00  0.00    -0.275 OA
ENDBRANCH  29  30
ENDBRANCH   5  29
ENDBRANCH   2   5
BRANCH   1  35
ATOM     35  CA  VAL A   3      38.848   4.160  29.010  0.00  0.00    +0.149 C 
BRANCH  35  38
ATOM     36  C   PRO A   2      40.945   4.095  30.301  0.00  0.00    +0.241 C 
ATOM     37  O   PRO A   2      40.616   5.044  31.013  0.00  0.00    -0.273 OA
ATOM     38  N   VAL A   3      40.184   3.620  29.311  0.00  0.00    -0.297 N 
ATOM     39  H   VAL A   3      40.550   2.838  28.730  0.00  0.00    +0.150 HD
BRANCH  36  43
ATOM     40  C   LYS A   1      41.665   1.167  31.199  0.00  0.00    +0.241 C 
ATOM     41  O   LYS A   1      40.959   1.601  32.099  0.00  0.00    -0.273 OA
ATOM     42  N   PRO A   2      42.303   1.966  30.331  0.00  0.00    -0.272 N 
ATOM     43  CA  PRO A   2      42.296   3.418  30.536  0.00  0.00    +0.152 C 
ATOM     44  CB  PRO A   2      43.351   3.930  29.550  0.00  0.00    +0.031 C 
ATOM     45  CG  PRO A   2      43.502   2.873  28.540  0.00  0.00    +0.024 C 
ATOM     46  CD  PRO A   2      43.065   1.568  29.134  0.00  0.00    +0.094 C 
BRANCH  40  47
ATOM     47  CA  LYS A   1      41.891  -0.341  31.072  0.00  0.00    +0.145 C 
BRANCH  47  48
ATOM     48  N   LYS A   1      42.432  -0.769  32.360  0.00  0.00    -0.238 NA
ATOM     49  H   LYS A   1      41.950  -1.505  32.915  0.00  0.00    +0.142 HD
ENDBRANCH  47  48
BRANCH  47  50
ATOM     50  CB  LYS A   1      40.596  -1.072  30.709  0.00  0.00    +0.026 C 
BRANCH  50  51
ATOM     51  CG  LYS A   1      40.160  -0.817  29.272  0.00  0.00    -0.000 C 
BRANCH  51  52
ATOM     52  CD  LYS A   1      38.981  -1.658  28.858  0.00  0.00    -0.024 C 
BRANCH  52  53
ATOM     53  CE  LYS A   1      38.491  -1.219  27.483  0.00  0.00    -0.086 C 
BRANCH  53  54
ATOM     54  NZ  LYS A   1      37.393  -2.076  26.996  0.00  0.00    +0.380 N 
ATOM     55  HZ1 LYS A   1      36.595  -2.025  27.660  0.00  0.00    -0.089 HD
ATOM     56  HZ2 LYS A   1      37.726  -3.059  26.927  0.00  0.00    -0.089 HD
ATOM     57  HZ3 LYS A   1      37.087  -1.746  26.058  0.00  0.00    -0.089 HD
ENDBRANCH  53  54
ENDBRANCH  52  53
ENDBRANCH  51  52
ENDBRANCH  50  51
ENDBRANCH  47  50
ENDBRANCH  40  47
ENDBRANCH  36  43
ENDBRANCH  35  38
BRANCH  35  58
ATOM     58  CB  VAL A   3      38.848   5.115  27.777  0.00  0.00    +0.027 C 
ATOM     59  CG2 VAL A   3      39.890   6.215  27.923  0.00  0.00    +0.002 C 
ATOM     60  CG1 VAL A   3      37.444   5.715  27.533  0.00  0.00    +0.002 C 
ENDBRANCH  35  58
ENDBRANCH   1  35
TORSDOF 23
REMARK  Name = ../refined-set-2016/2g8r/2g8r_pocket.pdb
REMARK  123 active torsions:
REMARK  status: ('A' for Active; 'I' for Inactive)
REMARK    1  A    between atoms: _1  and  _3
REMARK    2  A    between atoms: _3  and  _4
REMARK    3  A    between atoms: _3  and  _6
REMARK    4  A    between atoms: _6  and  _7
REMARK    5  A    between atoms: _13  and  _15
REMARK    6  A    between atoms: _15  and  _16
REMARK    7  A    between atoms: _15  and  _18
REMARK    8  A    between atoms: _18  and  _19
REMARK    9  A    between atoms: _19  and  _20
REMARK   10  A    between atoms: _25  and  _27
REMARK   11  A    between atoms: _27  and  _28
REMARK   12  A    between atoms: _27  and  _30
REMARK   13  A    between atoms: _30  and  _31
REMARK   14  A    between atoms: _36  and  _38
REMARK   15  A    between atoms: _38  and  _39
REMARK   16  A    between atoms: _38  and  _41
REMARK   17  A    between atoms: _41  and  _42
REMARK   18  A    between atoms: _42  and  _43
REMARK   19  A    between atoms: _45  and  _47
REMARK   20  A    between atoms: _47  and  _48
REMARK   21  A    between atoms: _47  and  _50
REMARK   22  A    between atoms: _50  and  _51
REMARK   23  A    between atoms: _54  and  _56
REMARK   24  A    between atoms: _56  and  _57
REMARK   25  A    between atoms: _56  and  _59
REMARK   26  A    between atoms: _59  and  _60
REMARK   27  A    between atoms: _60  and  _61
REMARK   28  A    between atoms: _61  and  _62
REMARK   29  A    between atoms: _71  and  _73
REMARK   30  A    between atoms: _73  and  _74
REMARK   31  A    between atoms: _73  and  _76
REMARK   32  A    between atoms: _76  and  _77
REMARK   33  A    between atoms: _77  and  _78
REMARK   34  A    between atoms: _78  and  _79
REMARK   35  A    between atoms: _79  and  _80
REMARK   36  A    between atoms: _85  and  _86
REMARK   37  A    between atoms: _91  and  _93
REMARK   38  A    between atoms: _93  and  _94
REMARK   39  A    between atoms: _93  and  _96
REMARK   40  A    between atoms: _99  and  _101
REMARK   41  A    between atoms: _101  and  _102
REMARK   42  A    between atoms: _101  and  _104
REMARK   43  A    between atoms: _104  and  _105
REMARK   44  A    between atoms: _110  and  _112
REMARK   45  A    between atoms: _112  and  _113
REMARK   46  A    between atoms: _112  and  _115
REMARK   47  A    between atoms: _115  and  _116
REMARK   48  A    between atoms: _119  and  _121
REMARK   49  A    between atoms: _121  and  _122
REMARK   50  A    between atoms: _121  and  _124
REMARK   51  A    between atoms: _124  and  _125
REMARK   52  A    between atoms: _131  and  _133
REMARK   53  A    between atoms: _133  and  _134
REMARK   54  A    between atoms: _133  and  _136
REMARK   55  A    between atoms: _136  and  _137
REMARK   56  A    between atoms: _137  and  _185
REMARK   57  A    between atoms: _138  and  _140
REMARK   58  A    between atoms: _140  and  _141
REMARK   59  A    between atoms: _140  and  _143
REMARK   60  A    between atoms: _143  and  _144
REMARK   61  A    between atoms: _144  and  _145
REMARK   62  A    between atoms: _145  and  _146
REMARK   63  A    between atoms: _146  and  _147
REMARK   64  A    between atoms: _151  and  _153
REMARK   65  A    between atoms: _153  and  _154
REMARK   66  A    between atoms: _153  and  _156
REMARK   67  A    between atoms: _156  and  _157
REMARK   68  A    between atoms: _162  and  _164
REMARK   69  A    between atoms: _164  and  _165
REMARK   70  A    between atoms: _167  and  _169
REMARK   71  A    between atoms: _169  and  _170
REMARK   72  A    between atoms: _169  and  _172
REMARK   73  A    between atoms: _172  and  _173
REMARK   74  A    between atoms: _173  and  _174
REMARK   75  A    between atoms: _179  and  _181
REMARK   76  A    between atoms: _181  and  _182
REMARK   77  A    between atoms: _181  and  _184
REMARK   78  A    between atoms: _184  and  _185
REMARK   79  A    between atoms: _186  and  _188
REMARK   80  A    between atoms: _188  and  _189
REMARK   81  A    between atoms: _188  and  _191
REMARK   82  A    between atoms: _191  and  _192
REMARK   83  A    between atoms: _195  and  _197
REMARK   84  A    between atoms: _197  and  _198
REMARK   85  A    between atoms: _197  and  _200
REMARK   86  A    between atoms: _200  and  _201
REMARK   87  A    between atoms: _204  and  _206
REMARK   88  A    between atoms: _206  and  _207
REMARK   89  A    between atoms: _206  and  _209
REMARK   90  A    between atoms: _209  and  _210
REMARK   91  A    between atoms: _213  and  _215
REMARK   92  A    between atoms: _215  and  _216
REMARK   93  A    between atoms: _215  and  _218
REMARK   94  A    between atoms: _220  and  _222
REMARK   95  A    between atoms: _222  and  _223
REMARK   96  A    between atoms: _222  and  _225
REMARK   97  A    between atoms: _225  and  _226
REMARK   98  A    between atoms: _226  and  _227
REMARK   99  A    between atoms: _227  and  _228
REMARK  100  A    between atoms: _237  and  _239
REMARK  101  A    between atoms: _239  and  _240
REMARK  102  A    between atoms: _239  and  _242
REMARK  103  A    between atoms: _242  and  _243
REMARK  104  A    between atoms: _246  and  _248
REMARK  105  A    between atoms: _248  and  _249
REMARK  106  A    between atoms: _252  and  _254
REMARK  107  A    between atoms: _254  and  _255
REMARK  108  A    between atoms: _254  and  _257
REMARK  109  A    between atoms: _257  and  _258
REMARK  110  A    between atoms: _263  and  _265
REMARK  111  A    between atoms: _265  and  _266
REMARK  112  A    between atoms: _265  and  _268
REMARK  113  A    between atoms: _268  and  _269
REMARK  114  A    between atoms: _275  and  _277
REMARK  115  A    between atoms: _277  and  _278
REMARK  116  A    between atoms: _277  and  _280
REMARK  117  A    between atoms: _280  and  _281
REMARK  118  A    between atoms: _284  and  _286
REMARK  119  A    between atoms: _286  and  _287
REMARK  120  A    between atoms: _290  and  _292
REMARK  121  A    between atoms: _292  and  _293
REMARK  122  A    between atoms: _292  and  _295
REMARK  123  A    between atoms: _295  and  _296
REMARK                            x       y       z     vdW  Elec       q    Type
REMARK                         _______ _______ _______ _____ _____    ______ ____
ROOT
ATOM      1  C   LYS A   2      38.965   3.334  12.734  0.00  0.00    +0.241 C 
ATOM      2  N   ASN A   3      38.888   2.005  12.649  0.00  0.00    -0.297 N 
ATOM      3  H   ASN A   3      38.046   1.518  13.018  0.00  0.00    +0.150 HD
ATOM      4  O   LYS A   2      39.906   3.975  12.300  0.00  0.00    -0.273 OA
ENDROOT
BRANCH   2   5
ATOM      5  CA  ASN A   3      39.967   1.217  12.045  0.00  0.00    +0.158 C 
BRANCH   5   6
ATOM      6  C   ASN A   3      39.895   1.109  10.523  0.00  0.00    +0.241 C 
ATOM      7  N   GLY A   4      38.919   1.789   9.927  0.00  0.00    -0.295 N 
ATOM      8  H   GLY A   4      38.253   2.336  10.510  0.00  0.00    +0.150 HD
ATOM      9  O   ASN A   3      40.715   0.409   9.909  0.00  0.00    -0.273 OA
BRANCH   7  10
ATOM     10  CA  GLY A   4      38.760   1.787   8.483  0.00  0.00    +0.176 C 
BRANCH  10  11
ATOM     11  C   GLY A   4      37.817   0.728   7.943  0.00  0.00    +0.243 C 
ATOM     12  N   GLN A   5      37.358  -0.170   8.808  0.00  0.00    -0.298 N 
ATOM     13  H   GLN A   5      37.699  -0.163   9.790  0.00  0.00    +0.150 HD
ATOM     14  O   GLY A   4      37.520   0.709   6.745  0.00  0.00    -0.273 OA
BRANCH  12  15
ATOM     15  CA  GLN A   5      36.382  -1.162   8.389  0.00  0.00    +0.137 C 
BRANCH  15  16
ATOM     16  C   GLN A   5      34.997  -0.525   8.235  0.00  0.00    +0.227 C 
ATOM     17  O   GLN A   5      34.780   0.622   8.650  0.00  0.00    -0.286 OA
ENDBRANCH  15  16
BRANCH  15  18
ATOM     18  CB  GLN A   5      36.375  -2.344   9.360  0.00  0.00    +0.037 C 
BRANCH  18  19
ATOM     19  CG  GLN A   5      37.709  -3.096   9.346  0.00  0.00    +0.087 C 
BRANCH  19  20
ATOM     20  CD  GLN A   5      37.991  -3.770   8.018  0.00  0.00    +0.219 C 
ATOM     21  NE2 GLN A   5      37.380  -4.934   7.811  0.00  0.00    -0.329 N 
ATOM     22 HE21 GLN A   5      36.747  -5.325   8.537  0.00  0.00    +0.145 HD
ATOM     23 HE22 GLN A   5      37.536  -5.452   6.923  0.00  0.00    +0.145 HD
ATOM     24  OE1 GLN A   5      38.758  -3.257   7.183  0.00  0.00    -0.275 OA
ENDBRANCH  19  20
ENDBRANCH  18  19
ENDBRANCH  15  18
ENDBRANCH  12  15
ENDBRANCH  10  11
ENDBRANCH   7  10
ENDBRANCH   5   6
BRANCH   5  25
ATOM     25  CB  ASN A   3      40.067  -0.179  12.679  0.00  0.00    +0.114 C 
BRANCH  25  26
ATOM     26  CG  ASN A   3      38.917  -1.099  12.303  0.00  0.00    +0.222 C 
ATOM     27  ND2 ASN A   3      38.983  -2.343  12.776  0.00  0.00    -0.329 N 
ATOM     28 HD21 ASN A   3      39.791  -2.634  13.362  0.00  0.00    +0.145 HD
ATOM     29 HD22 ASN A   3      38.226  -3.023  12.559  0.00  0.00    +0.145 HD
ATOM     30  OD1 ASN A   3      37.991  -0.712  11.613  0.00  0.00    -0.275 OA
ENDBRANCH  25  26
ENDBRANCH   5  25
ENDBRANCH   2   5
BRANCH   1  31
ATOM     31  CA  LYS A   2      37.787   4.062  13.376  0.00  0.00    +0.149 C 
BRANCH  31  33
ATOM     32  C   CYS A   1      36.066   3.096  11.957  0.00  0.00    +0.239 C 
ATOM     33  N   LYS A   2      36.511   3.384  13.171  0.00  0.00    -0.297 N 
ATOM     34  H   LYS A   2      35.937   3.121  13.998  0.00  0.00    +0.150 HD
ATOM     35  O   CYS A   1      36.667   3.388  10.932  0.00  0.00    -0.274 OA
BRANCH  32  36
ATOM     36  CA  CYS A   1      34.788   2.290  11.894  0.00  0.00    +0.156 C 
BRANCH  36  37
ATOM     37  N   CYS A   1      34.100   2.571  10.634  0.00  0.00    -0.237 NA
ATOM     38  H   CYS A   1      34.140   1.870   9.867  0.00  0.00    +0.142 HD
ENDBRANCH  36  37
BRANCH  36  39
ATOM     39  CB  CYS A   1      35.174   0.827  11.979  0.00  0.00    +0.095 C 
BRANCH  39  40
ATOM     40  SG  CYS A   1      33.749  -0.246  11.877  0.00  0.00    -0.080 S 
BRANCH  40  41
ATOM     41  SG  CYS A   1      32.689   0.239  13.548  0.00  0.00    -0.080 S 
BRANCH  41  42
ATOM     42  CB  CYS A   1      31.208   1.018  12.865  0.00  0.00    +0.094 C 
BRANCH  42  43
ATOM     43  CA  CYS A   1      30.165  -0.015  12.446  0.00  0.00    +0.145 C 
BRANCH  43  44
ATOM     44  N   CYS A   1      30.595  -0.780  11.270  0.00  0.00    -0.238 NA
ATOM     45  H   CYS A   1      30.891  -0.274  10.411  0.00  0.00    +0.142 HD
ENDBRANCH  43  44
BRANCH  43  46
ATOM     46  C   CYS A   1      28.813   0.627  12.239  0.00  0.00    +0.225 C 
ATOM     47  O   CYS A   1      28.402   0.886  11.101  0.00  0.00    -0.287 OA
ENDBRANCH  43  46
ENDBRANCH  42  43
ENDBRANCH  41  42
ENDBRANCH  40  41
ENDBRANCH  39  40
ENDBRANCH  36  39
ENDBRANCH  32  36
ENDBRANCH  31  33
BRANCH  31  48
ATOM     48  CB  LYS A   2      38.039   4.268  14.868  0.00  0.00    +0.029 C 
BRANCH  48  49
ATOM     49  CG  LYS A   2      37.250   5.443  15.424  0.00  0.00    +0.000 C 
BRANCH  49  50
ATOM     50  CD  LYS A   2      37.349   5.503  16.935  0.00  0.00    -0.024 C 
BRANCH  50  51
ATOM     51  CE  LYS A   2      36.474   6.621  17.464  0.00  0.00    -0.086 C 
BRANCH  51  52
ATOM     52  NZ  LYS A   2      36.607   6.750  18.944  0.00  0.00    +0.380 N 
ATOM     53  HZ1 LYS A   2      36.319   5.859  19.396  0.00  0.00    -0.089 HD
ATOM     54  HZ2 LYS A   2      35.997   7.523  19.280  0.00  0.00    -0.089 HD
ATOM     55  HZ3 LYS A   2      37.597   6.958  19.185  0.00  0.00    -0.089 HD
ENDBRANCH  51  52
ENDBRANCH  50  51
ENDBRANCH  49  50
ENDBRANCH  48  49
ENDBRANCH  31  48
ENDBRANCH   1  31
TORSDOF 27
REMARK  Name = ../refined-set-2016/2g8r/2g8r_pocket.pdb
REMARK  123 active torsions:
REMARK  status: ('A' for Active; 'I' for Inactive)
REMARK    1  A    between atoms: _1  and  _3
REMARK    2  A    between atoms: _3  and  _4
REMARK    3  A    between atoms: _3  and  _6
REMARK    4  A    between atoms: _6  and  _7
REMARK    5  A    between atoms: _13  and  _15
REMARK    6  A    between atoms: _15  and  _16
REMARK    7  A    between atoms: _15  and  _18
REMARK    8  A    between atoms: _18  and  _19
REMARK    9  A    between atoms: _19  and  _20
REMARK   10  A    between atoms: _25  and  _27
REMARK   11  A    between atoms: _27  and  _28
REMARK   12  A    between atoms: _27  and  _30
REMARK   13  A    between atoms: _30  and  _31
REMARK   14  A    between atoms: _36  and  _38
REMARK   15  A    between atoms: _38  and  _39
REMARK   16  A    between atoms: _38  and  _41
REMARK   17  A    between atoms: _41  and  _42
REMARK   18  A    between atoms: _42  and  _43
REMARK   19  A    between atoms: _45  and  _47
REMARK   20  A    between atoms: _47  and  _48
REMARK   21  A    between atoms: _47  and  _50
REMARK   22  A    between atoms: _50  and  _51
REMARK   23  A    between atoms: _54  and  _56
REMARK   24  A    between atoms: _56  and  _57
REMARK   25  A    between atoms: _56  and  _59
REMARK   26  A    between atoms: _59  and  _60
REMARK   27  A    between atoms: _60  and  _61
REMARK   28  A    between atoms: _61  and  _62
REMARK   29  A    between atoms: _71  and  _73
REMARK   30  A    between atoms: _73  and  _74
REMARK   31  A    between atoms: _73  and  _76
REMARK   32  A    between atoms: _76  and  _77
REMARK   33  A    between atoms: _77  and  _78
REMARK   34  A    between atoms: _78  and  _79
REMARK   35  A    between atoms: _79  and  _80
REMARK   36  A    between atoms: _85  and  _86
REMARK   37  A    between atoms: _91  and  _93
REMARK   38  A    between atoms: _93  and  _94
REMARK   39  A    between atoms: _93  and  _96
REMARK   40  A    between atoms: _99  and  _101
REMARK   41  A    between atoms: _101  and  _102
REMARK   42  A    between atoms: _101  and  _104
REMARK   43  A    between atoms: _104  and  _105
REMARK   44  A    between atoms: _110  and  _112
REMARK   45  A    between atoms: _112  and  _113
REMARK   46  A    between atoms: _112  and  _115
REMARK   47  A    between atoms: _115  and  _116
REMARK   48  A    between atoms: _119  and  _121
REMARK   49  A    between atoms: _121  and  _122
REMARK   50  A    between atoms: _121  and  _124
REMARK   51  A    between atoms: _124  and  _125
REMARK   52  A    between atoms: _131  and  _133
REMARK   53  A    between atoms: _133  and  _134
REMARK   54  A    between atoms: _133  and  _136
REMARK   55  A    between atoms: _136  and  _137
REMARK   56  A    between atoms: _137  and  _185
REMARK   57  A    between atoms: _138  and  _140
REMARK   58  A    between atoms: _140  and  _141
REMARK   59  A    between atoms: _140  and  _143
REMARK   60  A    between atoms: _143  and  _144
REMARK   61  A    between atoms: _144  and  _145
REMARK   62  A    between atoms: _145  and  _146
REMARK   63  A    between atoms: _146  and  _147
REMARK   64  A    between atoms: _151  and  _153
REMARK   65  A    between atoms: _153  and  _154
REMARK   66  A    between atoms: _153  and  _156
REMARK   67  A    between atoms: _156  and  _157
REMARK   68  A    between atoms: _162  and  _164
REMARK   69  A    between atoms: _164  and  _165
REMARK   70  A    between atoms: _167  and  _169
REMARK   71  A    between atoms: _169  and  _170
REMARK   72  A    between atoms: _169  and  _172
REMARK   73  A    between atoms: _172  and  _173
REMARK   74  A    between atoms: _173  and  _174
REMARK   75  A    between atoms: _179  and  _181
REMARK   76  A    between atoms: _181  and  _182
REMARK   77  A    between atoms: _181  and  _184
REMARK   78  A    between atoms: _184  and  _185
REMARK   79  A    between atoms: _186  and  _188
REMARK   80  A    between atoms: _188  and  _189
REMARK   81  A    between atoms: _188  and  _191
REMARK   82  A    between atoms: _191  and  _192
REMARK   83  A    between atoms: _195  and  _197
REMARK   84  A    between atoms: _197  and  _198
REMARK   85  A    between atoms: _197  and  _200
REMARK   86  A    between atoms: _200  and  _201
REMARK   87  A    between atoms: _204  and  _206
REMARK   88  A    between atoms: _206  and  _207
REMARK   89  A    between atoms: _206  and  _209
REMARK   90  A    between atoms: _209  and  _210
REMARK   91  A    between atoms: _213  and  _215
REMARK   92  A    between atoms: _215  and  _216
REMARK   93  A    between atoms: _215  and  _218
REMARK   94  A    between atoms: _220  and  _222
REMARK   95  A    between atoms: _222  and  _223
REMARK   96  A    between atoms: _222  and  _225
REMARK   97  A    between atoms: _225  and  _226
REMARK   98  A    between atoms: _226  and  _227
REMARK   99  A    between atoms: _227  and  _228
REMARK  100  A    between atoms: _237  and  _239
REMARK  101  A    between atoms: _239  and  _240
REMARK  102  A    between atoms: _239  and  _242
REMARK  103  A    between atoms: _242  and  _243
REMARK  104  A    between atoms: _246  and  _248
REMARK  105  A    between atoms: _248  and  _249
REMARK  106  A    between atoms: _252  and  _254
REMARK  107  A    between atoms: _254  and  _255
REMARK  108  A    between atoms: _254  and  _257
REMARK  109  A    between atoms: _257  and  _258
REMARK  110  A    between atoms: _263  and  _265
REMARK  111  A    between atoms: _265  and  _266
REMARK  112  A    between atoms: _265  and  _268
REMARK  113  A    between atoms: _268  and  _269
REMARK  114  A    between atoms: _275  and  _277
REMARK  115  A    between atoms: _277  and  _278
REMARK  116  A    between atoms: _277  and  _280
REMARK  117  A    between atoms: _280  and  _281
REMARK  118  A    between atoms: _284  and  _286
REMARK  119  A    between atoms: _286  and  _287
REMARK  120  A    between atoms: _290  and  _292
REMARK  121  A    between atoms: _292  and  _293
REMARK  122  A    between atoms: _292  and  _295
REMARK  123  A    between atoms: _295  and  _296
REMARK                            x       y       z     vdW  Elec       q    Type
REMARK                         _______ _______ _______ _____ _____    ______ ____
ROOT
ATOM      1  C   ASP A   3      32.999   6.698  31.752  0.00  0.00    +0.241 C 
ATOM      2  O   ASP A   3      32.816   7.383  32.771  0.00  0.00    -0.273 OA
ATOM      3  N   CYS A   4      33.926   5.738  31.670  0.00  0.00    -0.296 N 
ATOM      4  H   CYS A   4      33.947   5.140  30.819  0.00  0.00    +0.150 HD
ENDROOT
BRANCH   3   5
ATOM      5  CA  CYS A   4      34.917   5.489  32.726  0.00  0.00    +0.160 C 
BRANCH   5   6
ATOM      6  C   CYS A   4      36.324   5.789  32.217  0.00  0.00    +0.242 C 
ATOM      7  N   ARG A   5      37.017   6.681  32.916  0.00  0.00    -0.298 N 
ATOM      8  H   ARG A   5      36.644   6.988  33.837  0.00  0.00    +0.150 HD
ATOM      9  O   CYS A   4      36.768   5.210  31.229  0.00  0.00    -0.273 OA
BRANCH   7  10
ATOM     10  CA  ARG A   5      38.276   7.249  32.451  0.00  0.00    +0.137 C 
BRANCH  10  11
ATOM     11  C   ARG A   5      39.275   7.232  33.604  0.00  0.00    +0.227 C 
ATOM     12  O   ARG A   5      39.007   7.793  34.669  0.00  0.00    -0.286 OA
ENDBRANCH  10  11
BRANCH  10  13
ATOM     13  CB  ARG A   5      38.018   8.697  32.017  0.00  0.00    +0.031 C 
BRANCH  13  14
ATOM     14  CG  ARG A   5      39.097   9.344  31.182  0.00  0.00    +0.045 C 
BRANCH  14  15
ATOM     15  CD  ARG A   5      38.491  10.471  30.368  0.00  0.00    +0.174 C 
BRANCH  15  16
ATOM     16  NE  ARG A   5      37.511   9.971  29.397  0.00  0.00    -0.265 N 
ATOM     17  HE  ARG A   5      36.557   9.744  29.742  0.00  0.00    +0.259 HD
ATOM     18  CZ  ARG A   5      37.764   9.789  28.103  0.00  0.00    +0.342 C 
ATOM     19  NH2 ARG A   5      38.968  10.078  27.610  0.00  0.00    -0.292 N 
ATOM     20 HH21 ARG A   5      39.712  10.446  28.237  0.00  0.00    +0.255 HD
ATOM     21 HH22 ARG A   5      39.164   9.935  26.599  0.00  0.00    +0.255 HD
ATOM     22  NH1 ARG A   5      36.810   9.328  27.299  0.00  0.00    -0.292 N 
ATOM     23 HH11 ARG A   5      35.868   9.110  27.682  0.00  0.00    +0.255 HD
ATOM     24 HH12 ARG A   5      37.006   9.185  26.288  0.00  0.00    +0.255 HD
ENDBRANCH  15  16
ENDBRANCH  14  15
ENDBRANCH  13  14
ENDBRANCH  10  13
ENDBRANCH   7  10
ENDBRANCH   5   6
BRANCH   5  25
ATOM     25  CB  CYS A   4      34.860   4.037  33.200  0.00  0.00    +0.098 C 
ATOM     26  SG  CYS A   4      33.298   3.581  33.944  0.00  0.00    -0.080 S 
ENDBRANCH   5  25
ENDBRANCH   3   5
BRANCH   1  27
ATOM     27  CA  ASP A   3      32.119   6.901  30.514  0.00  0.00    +0.160 C 
BRANCH  27  29
ATOM     28  C   THR A   2      30.037   5.746  31.092  0.00  0.00    +0.243 C 
ATOM     29  N   ASP A   3      30.727   6.868  30.915  0.00  0.00    -0.296 N 
ATOM     30  H   ASP A   3      30.240   7.773  31.073  0.00  0.00    +0.150 HD
ATOM     31  O   THR A   2      30.443   4.618  30.789  0.00  0.00    -0.273 OA
BRANCH  28  32
ATOM     32  CA  THR A   2      28.653   5.938  31.673  0.00  0.00    +0.176 C 
BRANCH  32  34
ATOM     33  C   ILE A   1      26.724   6.246  30.240  0.00  0.00    +0.238 C 
ATOM     34  N   THR A   2      27.676   5.455  30.716  0.00  0.00    -0.295 N 
ATOM     35  H   THR A   2      27.723   4.467  30.396  0.00  0.00    +0.150 HD
ATOM     36  O   ILE A   1      26.501   7.376  30.682  0.00  0.00    -0.274 OA
BRANCH  33  37
ATOM     37  CA  ILE A   1      25.915   5.678  29.073  0.00  0.00    +0.145 C 
BRANCH  37  38
ATOM     38  N   ILE A   1      24.585   6.293  28.970  0.00  0.00    -0.238 NA
ATOM     39  H   ILE A   1      24.489   7.321  29.099  0.00  0.00    +0.142 HD
ENDBRANCH  37  38
BRANCH  37  40
ATOM     40  CB  ILE A   1      26.725   5.817  27.756  0.00  0.00    +0.025 C 
ATOM     41  CG2 ILE A   1      25.958   5.173  26.588  0.00  0.00    +0.002 C 
BRANCH  40  42
ATOM     42  CG1 ILE A   1      27.082   7.289  27.469  0.00  0.00    +0.002 C 
ATOM     43  CD1 ILE A   1      28.053   7.502  26.324  0.00  0.00    +0.000 C 
ENDBRANCH  40  42
ENDBRANCH  37  40
ENDBRANCH  33  37
ENDBRANCH  32  34
BRANCH  32  44
ATOM     44  CB  THR A   2      28.552   5.222  33.030  0.00  0.00    +0.137 C 
ATOM     45  CG2 THR A   2      29.520   5.849  34.037  0.00  0.00    +0.034 C 
BRANCH  44  46
ATOM     46  OG1 THR A   2      27.216   5.331  33.533  0.00  0.00    -0.382 OA
ATOM     47  HG1 THR A   2      26.588   4.912  32.892  0.00  0.00    +0.210 HD
ENDBRANCH  44  46
ENDBRANCH  32  44
ENDBRANCH  28  32
ENDBRANCH  27  29
BRANCH  27  48
ATOM     48  CB  ASP A   3      32.408   8.248  29.846  0.00  0.00    +0.143 C 
BRANCH  48  49
ATOM     49  CG  ASP A   3      33.871   8.463  29.559  0.00  0.00    +0.367 C 
ATOM     50  OD2 ASP A   3      34.577   9.001  30.437  0.00  0.00    -0.246 OA
ATOM     51  OD1 ASP A   3      34.315   8.109  28.449  0.00  0.00    -0.246 OA
ENDBRANCH  48  49
ENDBRANCH  27  48
ENDBRANCH   1  27
TORSDOF 21
REMARK  Name = ../refined-set-2016/2g8r/2g8r_pocket.pdb
REMARK  123 active torsions:
REMARK  status: ('A' for Active; 'I' for Inactive)
REMARK    1  A    between atoms: _1  and  _3
REMARK    2  A    between atoms: _3  and  _4
REMARK    3  A    between atoms: _3  and  _6
REMARK    4  A    between atoms: _6  and  _7
REMARK    5  A    between atoms: _13  and  _15
REMARK    6  A    between atoms: _15  and  _16
REMARK    7  A    between atoms: _15  and  _18
REMARK    8  A    between atoms: _18  and  _19
REMARK    9  A    between atoms: _19  and  _20
REMARK   10  A    between atoms: _25  and  _27
REMARK   11  A    between atoms: _27  and  _28
REMARK   12  A    between atoms: _27  and  _30
REMARK   13  A    between atoms: _30  and  _31
REMARK   14  A    between atoms: _36  and  _38
REMARK   15  A    between atoms: _38  and  _39
REMARK   16  A    between atoms: _38  and  _41
REMARK   17  A    between atoms: _41  and  _42
REMARK   18  A    between atoms: _42  and  _43
REMARK   19  A    between atoms: _45  and  _47
REMARK   20  A    between atoms: _47  and  _48
REMARK   21  A    between atoms: _47  and  _50
REMARK   22  A    between atoms: _50  and  _51
REMARK   23  A    between atoms: _54  and  _56
REMARK   24  A    between atoms: _56  and  _57
REMARK   25  A    between atoms: _56  and  _59
REMARK   26  A    between atoms: _59  and  _60
REMARK   27  A    between atoms: _60  and  _61
REMARK   28  A    between atoms: _61  and  _62
REMARK   29  A    between atoms: _71  and  _73
REMARK   30  A    between atoms: _73  and  _74
REMARK   31  A    between atoms: _73  and  _76
REMARK   32  A    between atoms: _76  and  _77
REMARK   33  A    between atoms: _77  and  _78
REMARK   34  A    between atoms: _78  and  _79
REMARK   35  A    between atoms: _79  and  _80
REMARK   36  A    between atoms: _85  and  _86
REMARK   37  A    between atoms: _91  and  _93
REMARK   38  A    between atoms: _93  and  _94
REMARK   39  A    between atoms: _93  and  _96
REMARK   40  A    between atoms: _99  and  _101
REMARK   41  A    between atoms: _101  and  _102
REMARK   42  A    between atoms: _101  and  _104
REMARK   43  A    between atoms: _104  and  _105
REMARK   44  A    between atoms: _110  and  _112
REMARK   45  A    between atoms: _112  and  _113
REMARK   46  A    between atoms: _112  and  _115
REMARK   47  A    between atoms: _115  and  _116
REMARK   48  A    between atoms: _119  and  _121
REMARK   49  A    between atoms: _121  and  _122
REMARK   50  A    between atoms: _121  and  _124
REMARK   51  A    between atoms: _124  and  _125
REMARK   52  A    between atoms: _131  and  _133
REMARK   53  A    between atoms: _133  and  _134
REMARK   54  A    between atoms: _133  and  _136
REMARK   55  A    between atoms: _136  and  _137
REMARK   56  A    between atoms: _137  and  _185
REMARK   57  A    between atoms: _138  and  _140
REMARK   58  A    between atoms: _140  and  _141
REMARK   59  A    between atoms: _140  and  _143
REMARK   60  A    between atoms: _143  and  _144
REMARK   61  A    between atoms: _144  and  _145
REMARK   62  A    between atoms: _145  and  _146
REMARK   63  A    between atoms: _146  and  _147
REMARK   64  A    between atoms: _151  and  _153
REMARK   65  A    between atoms: _153  and  _154
REMARK   66  A    between atoms: _153  and  _156
REMARK   67  A    between atoms: _156  and  _157
REMARK   68  A    between atoms: _162  and  _164
REMARK   69  A    between atoms: _164  and  _165
REMARK   70  A    between atoms: _167  and  _169
REMARK   71  A    between atoms: _169  and  _170
REMARK   72  A    between atoms: _169  and  _172
REMARK   73  A    between atoms: _172  and  _173
REMARK   74  A    between atoms: _173  and  _174
REMARK   75  A    between atoms: _179  and  _181
REMARK   76  A    between atoms: _181  and  _182
REMARK   77  A    between atoms: _181  and  _184
REMARK   78  A    between atoms: _184  and  _185
REMARK   79  A    between atoms: _186  and  _188
REMARK   80  A    between atoms: _188  and  _189
REMARK   81  A    between atoms: _188  and  _191
REMARK   82  A    between atoms: _191  and  _192
REMARK   83  A    between atoms: _195  and  _197
REMARK   84  A    between atoms: _197  and  _198
REMARK   85  A    between atoms: _197  and  _200
REMARK   86  A    between atoms: _200  and  _201
REMARK   87  A    between atoms: _204  and  _206
REMARK   88  A    between atoms: _206  and  _207
REMARK   89  A    between atoms: _206  and  _209
REMARK   90  A    between atoms: _209  and  _210
REMARK   91  A    between atoms: _213  and  _215
REMARK   92  A    between atoms: _215  and  _216
REMARK   93  A    between atoms: _215  and  _218
REMARK   94  A    between atoms: _220  and  _222
REMARK   95  A    between atoms: _222  and  _223
REMARK   96  A    between atoms: _222  and  _225
REMARK   97  A    between atoms: _225  and  _226
REMARK   98  A    between atoms: _226  and  _227
REMARK   99  A    between atoms: _227  and  _228
REMARK  100  A    between atoms: _237  and  _239
REMARK  101  A    between atoms: _239  and  _240
REMARK  102  A    between atoms: _239  and  _242
REMARK  103  A    between atoms: _242  and  _243
REMARK  104  A    between atoms: _246  and  _248
REMARK  105  A    between atoms: _248  and  _249
REMARK  106  A    between atoms: _252  and  _254
REMARK  107  A    between atoms: _254  and  _255
REMARK  108  A    between atoms: _254  and  _257
REMARK  109  A    between atoms: _257  and  _258
REMARK  110  A    between atoms: _263  and  _265
REMARK  111  A    between atoms: _265  and  _266
REMARK  112  A    between atoms: _265  and  _268
REMARK  113  A    between atoms: _268  and  _269
REMARK  114  A    between atoms: _275  and  _277
REMARK  115  A    between atoms: _277  and  _278
REMARK  116  A    between atoms: _277  and  _280
REMARK  117  A    between atoms: _280  and  _281
REMARK  118  A    between atoms: _284  and  _286
REMARK  119  A    between atoms: _286  and  _287
REMARK  120  A    between atoms: _290  and  _292
REMARK  121  A    between atoms: _292  and  _293
REMARK  122  A    between atoms: _292  and  _295
REMARK  123  A    between atoms: _295  and  _296
REMARK                            x       y       z     vdW  Elec       q    Type
REMARK                         _______ _______ _______ _____ _____    ______ ____
ROOT
ATOM      1  CA  ILE A   1      28.891   3.438  17.692  0.00  0.00    +0.133 C 
ENDROOT
BRANCH   1   2
ATOM      2  N   ILE A   1      28.471   4.051  18.941  0.00  0.00    -0.239 NA
ATOM      3  H   ILE A   1      29.178   4.225  19.684  0.00  0.00    +0.142 HD
ENDBRANCH   1   2
BRANCH   1   4
ATOM      4  C   ILE A   1      29.549   2.120  18.058  0.00  0.00    +0.224 C 
ATOM      5  O   ILE A   1      30.510   2.099  18.837  0.00  0.00    -0.287 OA
ENDBRANCH   1   4
BRANCH   1   6
ATOM      6  CB  ILE A   1      29.885   4.319  16.923  0.00  0.00    +0.023 C 
ATOM      7  CG2 ILE A   1      30.390   3.580  15.704  0.00  0.00    +0.002 C 
BRANCH   6   8
ATOM      8  CG1 ILE A   1      29.203   5.639  16.520  0.00  0.00    +0.002 C 
ATOM      9  CD1 ILE A   1      30.170   6.611  15.819  0.00  0.00    +0.000 C 
ENDBRANCH   6   8
ENDBRANCH   1   6
TORSDOF 4
REMARK  Name = ../refined-set-2016/2g8r/2g8r_pocket.pdb
REMARK  123 active torsions:
REMARK  status: ('A' for Active; 'I' for Inactive)
REMARK    1  A    between atoms: _1  and  _3
REMARK    2  A    between atoms: _3  and  _4
REMARK    3  A    between atoms: _3  and  _6
REMARK    4  A    between atoms: _6  and  _7
REMARK    5  A    between atoms: _13  and  _15
REMARK    6  A    between atoms: _15  and  _16
REMARK    7  A    between atoms: _15  and  _18
REMARK    8  A    between atoms: _18  and  _19
REMARK    9  A    between atoms: _19  and  _20
REMARK   10  A    between atoms: _25  and  _27
REMARK   11  A    between atoms: _27  and  _28
REMARK   12  A    between atoms: _27  and  _30
REMARK   13  A    between atoms: _30  and  _31
REMARK   14  A    between atoms: _36  and  _38
REMARK   15  A    between atoms: _38  and  _39
REMARK   16  A    between atoms: _38  and  _41
REMARK   17  A    between atoms: _41  and  _42
REMARK   18  A    between atoms: _42  and  _43
REMARK   19  A    between atoms: _45  and  _47
REMARK   20  A    between atoms: _47  and  _48
REMARK   21  A    between atoms: _47  and  _50
REMARK   22  A    between atoms: _50  and  _51
REMARK   23  A    between atoms: _54  and  _56
REMARK   24  A    between atoms: _56  and  _57
REMARK   25  A    between atoms: _56  and  _59
REMARK   26  A    between atoms: _59  and  _60
REMARK   27  A    between atoms: _60  and  _61
REMARK   28  A    between atoms: _61  and  _62
REMARK   29  A    between atoms: _71  and  _73
REMARK   30  A    between atoms: _73  and  _74
REMARK   31  A    between atoms: _73  and  _76
REMARK   32  A    between atoms: _76  and  _77
REMARK   33  A    between atoms: _77  and  _78
REMARK   34  A    between atoms: _78  and  _79
REMARK   35  A    between atoms: _79  and  _80
REMARK   36  A    between atoms: _85  and  _86
REMARK   37  A    between atoms: _91  and  _93
REMARK   38  A    between atoms: _93  and  _94
REMARK   39  A    between atoms: _93  and  _96
REMARK   40  A    between atoms: _99  and  _101
REMARK   41  A    between atoms: _101  and  _102
REMARK   42  A    between atoms: _101  and  _104
REMARK   43  A    between atoms: _104  and  _105
REMARK   44  A    between atoms: _110  and  _112
REMARK   45  A    between atoms: _112  and  _113
REMARK   46  A    between atoms: _112  and  _115
REMARK   47  A    between atoms: _115  and  _116
REMARK   48  A    between atoms: _119  and  _121
REMARK   49  A    between atoms: _121  and  _122
REMARK   50  A    between atoms: _121  and  _124
REMARK   51  A    between atoms: _124  and  _125
REMARK   52  A    between atoms: _131  and  _133
REMARK   53  A    between atoms: _133  and  _134
REMARK   54  A    between atoms: _133  and  _136
REMARK   55  A    between atoms: _136  and  _137
REMARK   56  A    between atoms: _137  and  _185
REMARK   57  A    between atoms: _138  and  _140
REMARK   58  A    between atoms: _140  and  _141
REMARK   59  A    between atoms: _140  and  _143
REMARK   60  A    between atoms: _143  and  _144
REMARK   61  A    between atoms: _144  and  _145
REMARK   62  A    between atoms: _145  and  _146
REMARK   63  A    between atoms: _146  and  _147
REMARK   64  A    between atoms: _151  and  _153
REMARK   65  A    between atoms: _153  and  _154
REMARK   66  A    between atoms: _153  and  _156
REMARK   67  A    between atoms: _156  and  _157
REMARK   68  A    between atoms: _162  and  _164
REMARK   69  A    between atoms: _164  and  _165
REMARK   70  A    between atoms: _167  and  _169
REMARK   71  A    between atoms: _169  and  _170
REMARK   72  A    between atoms: _169  and  _172
REMARK   73  A    between atoms: _172  and  _173
REMARK   74  A    between atoms: _173  and  _174
REMARK   75  A    between atoms: _179  and  _181
REMARK   76  A    between atoms: _181  and  _182
REMARK   77  A    between atoms: _181  and  _184
REMARK   78  A    between atoms: _184  and  _185
REMARK   79  A    between atoms: _186  and  _188
REMARK   80  A    between atoms: _188  and  _189
REMARK   81  A    between atoms: _188  and  _191
REMARK   82  A    between atoms: _191  and  _192
REMARK   83  A    between atoms: _195  and  _197
REMARK   84  A    between atoms: _197  and  _198
REMARK   85  A    between atoms: _197  and  _200
REMARK   86  A    between atoms: _200  and  _201
REMARK   87  A    between atoms: _204  and  _206
REMARK   88  A    between atoms: _206  and  _207
REMARK   89  A    between atoms: _206  and  _209
REMARK   90  A    between atoms: _209  and  _210
REMARK   91  A    between atoms: _213  and  _215
REMARK   92  A    between atoms: _215  and  _216
REMARK   93  A    between atoms: _215  and  _218
REMARK   94  A    between atoms: _220  and  _222
REMARK   95  A    between atoms: _222  and  _223
REMARK   96  A    between atoms: _222  and  _225
REMARK   97  A    between atoms: _225  and  _226
REMARK   98  A    between atoms: _226  and  _227
REMARK   99  A    between atoms: _227  and  _228
REMARK  100  A    between atoms: _237  and  _239
REMARK  101  A    between atoms: _239  and  _240
REMARK  102  A    between atoms: _239  and  _242
REMARK  103  A    between atoms: _242  and  _243
REMARK  104  A    between atoms: _246  and  _248
REMARK  105  A    between atoms: _248  and  _249
REMARK  106  A    between atoms: _252  and  _254
REMARK  107  A    between atoms: _254  and  _255
REMARK  108  A    between atoms: _254  and  _257
REMARK  109  A    between atoms: _257  and  _258
REMARK  110  A    between atoms: _263  and  _265
REMARK  111  A    between atoms: _265  and  _266
REMARK  112  A    between atoms: _265  and  _268
REMARK  113  A    between atoms: _268  and  _269
REMARK  114  A    between atoms: _275  and  _277
REMARK  115  A    between atoms: _277  and  _278
REMARK  116  A    between atoms: _277  and  _280
REMARK  117  A    between atoms: _280  and  _281
REMARK  118  A    between atoms: _284  and  _286
REMARK  119  A    between atoms: _286  and  _287
REMARK  120  A    between atoms: _290  and  _292
REMARK  121  A    between atoms: _292  and  _293
REMARK  122  A    between atoms: _292  and  _295
REMARK  123  A    between atoms: _295  and  _296
REMARK                            x       y       z     vdW  Elec       q    Type
REMARK                         _______ _______ _______ _____ _____    ______ ____
ROOT
ATOM      1  CA  ALA A   1      31.165  -2.810  15.429  0.00  0.00    +0.133 C 
ATOM      2  CB  ALA A   1      32.650  -3.063  15.341  0.00  0.00    +0.027 C 
ENDROOT
BRANCH   1   3
ATOM      3  N   ALA A   1      30.850  -1.924  16.546  0.00  0.00    -0.239 NA
ATOM      4  H   ALA A   1      31.390  -2.023  17.430  0.00  0.00    +0.142 HD
ENDBRANCH   1   3
BRANCH   1   5
ATOM      5  C   ALA A   1      30.422  -4.112  15.676  0.00  0.00    +0.224 C 
ATOM      6  O   ALA A   1      30.339  -4.592  16.825  0.00  0.00    -0.287 OA
ENDBRANCH   1   5
TORSDOF 2
REMARK  Name = ../refined-set-2016/2g8r/2g8r_pocket.pdb
REMARK  123 active torsions:
REMARK  status: ('A' for Active; 'I' for Inactive)
REMARK    1  A    between atoms: _1  and  _3
REMARK    2  A    between atoms: _3  and  _4
REMARK    3  A    between atoms: _3  and  _6
REMARK    4  A    between atoms: _6  and  _7
REMARK    5  A    between atoms: _13  and  _15
REMARK    6  A    between atoms: _15  and  _16
REMARK    7  A    between atoms: _15  and  _18
REMARK    8  A    between atoms: _18  and  _19
REMARK    9  A    between atoms: _19  and  _20
REMARK   10  A    between atoms: _25  and  _27
REMARK   11  A    between atoms: _27  and  _28
REMARK   12  A    between atoms: _27  and  _30
REMARK   13  A    between atoms: _30  and  _31
REMARK   14  A    between atoms: _36  and  _38
REMARK   15  A    between atoms: _38  and  _39
REMARK   16  A    between atoms: _38  and  _41
REMARK   17  A    between atoms: _41  and  _42
REMARK   18  A    between atoms: _42  and  _43
REMARK   19  A    between atoms: _45  and  _47
REMARK   20  A    between atoms: _47  and  _48
REMARK   21  A    between atoms: _47  and  _50
REMARK   22  A    between atoms: _50  and  _51
REMARK   23  A    between atoms: _54  and  _56
REMARK   24  A    between atoms: _56  and  _57
REMARK   25  A    between atoms: _56  and  _59
REMARK   26  A    between atoms: _59  and  _60
REMARK   27  A    between atoms: _60  and  _61
REMARK   28  A    between atoms: _61  and  _62
REMARK   29  A    between atoms: _71  and  _73
REMARK   30  A    between atoms: _73  and  _74
REMARK   31  A    between atoms: _73  and  _76
REMARK   32  A    between atoms: _76  and  _77
REMARK   33  A    between atoms: _77  and  _78
REMARK   34  A    between atoms: _78  and  _79
REMARK   35  A    between atoms: _79  and  _80
REMARK   36  A    between atoms: _85  and  _86
REMARK   37  A    between atoms: _91  and  _93
REMARK   38  A    between atoms: _93  and  _94
REMARK   39  A    between atoms: _93  and  _96
REMARK   40  A    between atoms: _99  and  _101
REMARK   41  A    between atoms: _101  and  _102
REMARK   42  A    between atoms: _101  and  _104
REMARK   43  A    between atoms: _104  and  _105
REMARK   44  A    between atoms: _110  and  _112
REMARK   45  A    between atoms: _112  and  _113
REMARK   46  A    between atoms: _112  and  _115
REMARK   47  A    between atoms: _115  and  _116
REMARK   48  A    between atoms: _119  and  _121
REMARK   49  A    between atoms: _121  and  _122
REMARK   50  A    between atoms: _121  and  _124
REMARK   51  A    between atoms: _124  and  _125
REMARK   52  A    between atoms: _131  and  _133
REMARK   53  A    between atoms: _133  and  _134
REMARK   54  A    between atoms: _133  and  _136
REMARK   55  A    between atoms: _136  and  _137
REMARK   56  A    between atoms: _137  and  _185
REMARK   57  A    between atoms: _138  and  _140
REMARK   58  A    between atoms: _140  and  _141
REMARK   59  A    between atoms: _140  and  _143
REMARK   60  A    between atoms: _143  and  _144
REMARK   61  A    between atoms: _144  and  _145
REMARK   62  A    between atoms: _145  and  _146
REMARK   63  A    between atoms: _146  and  _147
REMARK   64  A    between atoms: _151  and  _153
REMARK   65  A    between atoms: _153  and  _154
REMARK   66  A    between atoms: _153  and  _156
REMARK   67  A    between atoms: _156  and  _157
REMARK   68  A    between atoms: _162  and  _164
REMARK   69  A    between atoms: _164  and  _165
REMARK   70  A    between atoms: _167  and  _169
REMARK   71  A    between atoms: _169  and  _170
REMARK   72  A    between atoms: _169  and  _172
REMARK   73  A    between atoms: _172  and  _173
REMARK   74  A    between atoms: _173  and  _174
REMARK   75  A    between atoms: _179  and  _181
REMARK   76  A    between atoms: _181  and  _182
REMARK   77  A    between atoms: _181  and  _184
REMARK   78  A    between atoms: _184  and  _185
REMARK   79  A    between atoms: _186  and  _188
REMARK   80  A    between atoms: _188  and  _189
REMARK   81  A    between atoms: _188  and  _191
REMARK   82  A    between atoms: _191  and  _192
REMARK   83  A    between atoms: _195  and  _197
REMARK   84  A    between atoms: _197  and  _198
REMARK   85  A    between atoms: _197  and  _200
REMARK   86  A    between atoms: _200  and  _201
REMARK   87  A    between atoms: _204  and  _206
REMARK   88  A    between atoms: _206  and  _207
REMARK   89  A    between atoms: _206  and  _209
REMARK   90  A    between atoms: _209  and  _210
REMARK   91  A    between atoms: _213  and  _215
REMARK   92  A    between atoms: _215  and  _216
REMARK   93  A    between atoms: _215  and  _218
REMARK   94  A    between atoms: _220  and  _222
REMARK   95  A    between atoms: _222  and  _223
REMARK   96  A    between atoms: _222  and  _225
REMARK   97  A    between atoms: _225  and  _226
REMARK   98  A    between atoms: _226  and  _227
REMARK   99  A    between atoms: _227  and  _228
REMARK  100  A    between atoms: _237  and  _239
REMARK  101  A    between atoms: _239  and  _240
REMARK  102  A    between atoms: _239  and  _242
REMARK  103  A    between atoms: _242  and  _243
REMARK  104  A    between atoms: _246  and  _248
REMARK  105  A    between atoms: _248  and  _249
REMARK  106  A    between atoms: _252  and  _254
REMARK  107  A    between atoms: _254  and  _255
REMARK  108  A    between atoms: _254  and  _257
REMARK  109  A    between atoms: _257  and  _258
REMARK  110  A    between atoms: _263  and  _265
REMARK  111  A    between atoms: _265  and  _266
REMARK  112  A    between atoms: _265  and  _268
REMARK  113  A    between atoms: _268  and  _269
REMARK  114  A    between atoms: _275  and  _277
REMARK  115  A    between atoms: _277  and  _278
REMARK  116  A    between atoms: _277  and  _280
REMARK  117  A    between atoms: _280  and  _281
REMARK  118  A    between atoms: _284  and  _286
REMARK  119  A    between atoms: _286  and  _287
REMARK  120  A    between atoms: _290  and  _292
REMARK  121  A    between atoms: _292  and  _293
REMARK  122  A    between atoms: _292  and  _295
REMARK  123  A    between atoms: _295  and  _296
REMARK                            x       y       z     vdW  Elec       q    Type
REMARK                         _______ _______ _______ _____ _____    ______ ____
ROOT
ATOM      1  C   PHE A   2      33.551   0.619  20.561  0.00  0.00    +0.241 C 
ATOM      2  O   PHE A   2      34.713   0.718  20.970  0.00  0.00    -0.273 OA
ATOM      3  N   ASP A   3      33.088   1.345  19.542  0.00  0.00    -0.297 N 
ATOM      4  H   ASP A   3      32.080   1.304  19.289  0.00  0.00    +0.150 HD
ENDROOT
BRANCH   3   5
ATOM      5  CA  ASP A   3      34.002   2.201  18.780  0.00  0.00    +0.160 C 
BRANCH   5   6
ATOM      6  C   ASP A   3      34.058   3.621  19.317  0.00  0.00    +0.241 C 
ATOM      7  N   ALA A   4      32.902   4.156  19.695  0.00  0.00    -0.297 N 
ATOM      8  H   ALA A   4      32.045   3.567  19.711  0.00  0.00    +0.150 HD
ATOM      9  O   ASP A   3      35.129   4.210  19.402  0.00  0.00    -0.273 OA
BRANCH   7  10
ATOM     10  CA  ALA A   4      32.819   5.558  20.087  0.00  0.00    +0.149 C 
ATOM     11  CB  ALA A   4      33.108   6.453  18.897  0.00  0.00    +0.031 C 
BRANCH  10  12
ATOM     12  C   ALA A   4      31.464   5.905  20.664  0.00  0.00    +0.241 C 
ATOM     13  N   SER A   5      31.440   7.022  21.375  0.00  0.00    -0.296 N 
ATOM     14  H   SER A   5      32.340   7.439  21.688  0.00  0.00    +0.150 HD
ATOM     15  O   ALA A   4      30.487   5.185  20.483  0.00  0.00    -0.273 OA
BRANCH  13  16
ATOM     16  CA  SER A   5      30.192   7.687  21.734  0.00  0.00    +0.166 C 
BRANCH  16  17
ATOM     17  C   SER A   5      30.262   9.106  21.174  0.00  0.00    +0.229 C 
ATOM     18  O   SER A   5      31.321   9.747  21.223  0.00  0.00    -0.286 OA
ENDBRANCH  16  17
BRANCH  16  19
ATOM     19  CB  SER A   5      29.979   7.682  23.240  0.00  0.00    +0.165 C 
BRANCH  19  20
ATOM     20  OG  SER A   5      30.917   8.516  23.901  0.00  0.00    -0.380 OA
ATOM     21  H   SER A   5      30.819   9.445  23.573  0.00  0.00    +0.211 HD
ENDBRANCH  19  20
ENDBRANCH  16  19
ENDBRANCH  13  16
ENDBRANCH  10  12
ENDBRANCH   7  10
ENDBRANCH   5   6
BRANCH   5  22
ATOM     22  CB  ASP A   3      33.633   2.206  17.293  0.00  0.00    +0.143 C 
BRANCH  22  23
ATOM     23  CG  ASP A   3      34.860   2.326  16.378  0.00  0.00    +0.367 C 
ATOM     24  OD2 ASP A   3      35.886   1.653  16.628  0.00  0.00    -0.246 OA
ATOM     25  OD1 ASP A   3      34.771   3.075  15.391  0.00  0.00    -0.246 OA
ENDBRANCH  22  23
ENDBRANCH   5  22
ENDBRANCH   3   5
BRANCH   1  26
ATOM     26  CA  PHE A   2      32.592  -0.366  21.214  0.00  0.00    +0.153 C 
BRANCH  26  28
ATOM     27  C   HIS A   1      32.657  -2.459  19.996  0.00  0.00    +0.239 C 
ATOM     28  N   PHE A   2      33.088  -1.716  21.006  0.00  0.00    -0.297 N 
ATOM     29  H   PHE A   2      33.794  -2.107  21.662  0.00  0.00    +0.150 HD
ATOM     30  O   HIS A   1      31.745  -2.115  19.228  0.00  0.00    -0.274 OA
BRANCH  27  31
ATOM     31  CA  HIS A   1      33.341  -3.796  19.821  0.00  0.00    +0.151 C 
BRANCH  31  32
ATOM     32  N   HIS A   1      32.333  -4.822  19.528  0.00  0.00    -0.238 NA
ATOM     33  H   HIS A   1      31.426  -4.543  19.102  0.00  0.00    +0.142 HD
ENDBRANCH  31  32
BRANCH  31  34
ATOM     34  CB  HIS A   1      34.370  -3.766  18.687  0.00  0.00    +0.074 C 
BRANCH  34  35
ATOM     35  CG  HIS A   1      35.152  -2.493  18.578  0.00  0.00    +0.082 A 
ATOM     36  ND1 HIS A   1      36.347  -2.302  19.238  0.00  0.00    -0.227 NA
ATOM     37  CE1 HIS A   1      36.823  -1.104  18.940  0.00  0.00    +0.199 A 
ATOM     38  NE2 HIS A   1      35.995  -0.529  18.086  0.00  0.00    -0.221 NA
ATOM     39  CD2 HIS A   1      34.943  -1.374  17.843  0.00  0.00    +0.115 A 
ENDBRANCH  34  35
ENDBRANCH  31  34
ENDBRANCH  27  31
ENDBRANCH  26  28
BRANCH  26  40
ATOM     40  CB  PHE A   2      32.482  -0.070  22.711  0.00  0.00    +0.055 C 
BRANCH  40  41
ATOM     41  CG  PHE A   2      31.702   1.159  23.004  0.00  0.00    -0.020 A 
ATOM     42  CD2 PHE A   2      30.334   1.076  23.223  0.00  0.00    -0.004 A 
ATOM     43  CE2 PHE A   2      29.593   2.225  23.485  0.00  0.00    -0.000 A 
ATOM     44  CZ  PHE A   2      30.227   3.463  23.516  0.00  0.00    -0.000 A 
ATOM     45  CE1 PHE A   2      31.590   3.560  23.283  0.00  0.00    -0.000 A 
ATOM     46  CD1 PHE A   2      32.326   2.409  23.030  0.00  0.00    -0.004 A 
ENDBRANCH  40  41
ENDBRANCH  26  40
ENDBRANCH   1  26
TORSDOF 18
REMARK  Name = ../refined-set-2016/2g8r/2g8r_pocket.pdb
REMARK  123 active torsions:
REMARK  status: ('A' for Active; 'I' for Inactive)
REMARK    1  A    between atoms: _1  and  _3
REMARK    2  A    between atoms: _3  and  _4
REMARK    3  A    between atoms: _3  and  _6
REMARK    4  A    between atoms: _6  and  _7
REMARK    5  A    between atoms: _13  and  _15
REMARK    6  A    between atoms: _15  and  _16
REMARK    7  A    between atoms: _15  and  _18
REMARK    8  A    between atoms: _18  and  _19
REMARK    9  A    between atoms: _19  and  _20
REMARK   10  A    between atoms: _25  and  _27
REMARK   11  A    between atoms: _27  and  _28
REMARK   12  A    between atoms: _27  and  _30
REMARK   13  A    between atoms: _30  and  _31
REMARK   14  A    between atoms: _36  and  _38
REMARK   15  A    between atoms: _38  and  _39
REMARK   16  A    between atoms: _38  and  _41
REMARK   17  A    between atoms: _41  and  _42
REMARK   18  A    between atoms: _42  and  _43
REMARK   19  A    between atoms: _45  and  _47
REMARK   20  A    between atoms: _47  and  _48
REMARK   21  A    between atoms: _47  and  _50
REMARK   22  A    between atoms: _50  and  _51
REMARK   23  A    between atoms: _54  and  _56
REMARK   24  A    between atoms: _56  and  _57
REMARK   25  A    between atoms: _56  and  _59
REMARK   26  A    between atoms: _59  and  _60
REMARK   27  A    between atoms: _60  and  _61
REMARK   28  A    between atoms: _61  and  _62
REMARK   29  A    between atoms: _71  and  _73
REMARK   30  A    between atoms: _73  and  _74
REMARK   31  A    between atoms: _73  and  _76
REMARK   32  A    between atoms: _76  and  _77
REMARK   33  A    between atoms: _77  and  _78
REMARK   34  A    between atoms: _78  and  _79
REMARK   35  A    between atoms: _79  and  _80
REMARK   36  A    between atoms: _85  and  _86
REMARK   37  A    between atoms: _91  and  _93
REMARK   38  A    between atoms: _93  and  _94
REMARK   39  A    between atoms: _93  and  _96
REMARK   40  A    between atoms: _99  and  _101
REMARK   41  A    between atoms: _101  and  _102
REMARK   42  A    between atoms: _101  and  _104
REMARK   43  A    between atoms: _104  and  _105
REMARK   44  A    between atoms: _110  and  _112
REMARK   45  A    between atoms: _112  and  _113
REMARK   46  A    between atoms: _112  and  _115
REMARK   47  A    between atoms: _115  and  _116
REMARK   48  A    between atoms: _119  and  _121
REMARK   49  A    between atoms: _121  and  _122
REMARK   50  A    between atoms: _121  and  _124
REMARK   51  A    between atoms: _124  and  _125
REMARK   52  A    between atoms: _131  and  _133
REMARK   53  A    between atoms: _133  and  _134
REMARK   54  A    between atoms: _133  and  _136
REMARK   55  A    between atoms: _136  and  _137
REMARK   56  A    between atoms: _137  and  _185
REMARK   57  A    between atoms: _138  and  _140
REMARK   58  A    between atoms: _140  and  _141
REMARK   59  A    between atoms: _140  and  _143
REMARK   60  A    between atoms: _143  and  _144
REMARK   61  A    between atoms: _144  and  _145
REMARK   62  A    between atoms: _145  and  _146
REMARK   63  A    between atoms: _146  and  _147
REMARK   64  A    between atoms: _151  and  _153
REMARK   65  A    between atoms: _153  and  _154
REMARK   66  A    between atoms: _153  and  _156
REMARK   67  A    between atoms: _156  and  _157
REMARK   68  A    between atoms: _162  and  _164
REMARK   69  A    between atoms: _164  and  _165
REMARK   70  A    between atoms: _167  and  _169
REMARK   71  A    between atoms: _169  and  _170
REMARK   72  A    between atoms: _169  and  _172
REMARK   73  A    between atoms: _172  and  _173
REMARK   74  A    between atoms: _173  and  _174
REMARK   75  A    between atoms: _179  and  _181
REMARK   76  A    between atoms: _181  and  _182
REMARK   77  A    between atoms: _181  and  _184
REMARK   78  A    between atoms: _184  and  _185
REMARK   79  A    between atoms: _186  and  _188
REMARK   80  A    between atoms: _188  and  _189
REMARK   81  A    between atoms: _188  and  _191
REMARK   82  A    between atoms: _191  and  _192
REMARK   83  A    between atoms: _195  and  _197
REMARK   84  A    between atoms: _197  and  _198
REMARK   85  A    between atoms: _197  and  _200
REMARK   86  A    between atoms: _200  and  _201
REMARK   87  A    between atoms: _204  and  _206
REMARK   88  A    between atoms: _206  and  _207
REMARK   89  A    between atoms: _206  and  _209
REMARK   90  A    between atoms: _209  and  _210
REMARK   91  A    between atoms: _213  and  _215
REMARK   92  A    between atoms: _215  and  _216
REMARK   93  A    between atoms: _215  and  _218
REMARK   94  A    between atoms: _220  and  _222
REMARK   95  A    between atoms: _222  and  _223
REMARK   96  A    between atoms: _222  and  _225
REMARK   97  A    between atoms: _225  and  _226
REMARK   98  A    between atoms: _226  and  _227
REMARK   99  A    between atoms: _227  and  _228
REMARK  100  A    between atoms: _237  and  _239
REMARK  101  A    between atoms: _239  and  _240
REMARK  102  A    between atoms: _239  and  _242
REMARK  103  A    between atoms: _242  and  _243
REMARK  104  A    between atoms: _246  and  _248
REMARK  105  A    between atoms: _248  and  _249
REMARK  106  A    between atoms: _252  and  _254
REMARK  107  A    between atoms: _254  and  _255
REMARK  108  A    between atoms: _254  and  _257
REMARK  109  A    between atoms: _257  and  _258
REMARK  110  A    between atoms: _263  and  _265
REMARK  111  A    between atoms: _265  and  _266
REMARK  112  A    between atoms: _265  and  _268
REMARK  113  A    between atoms: _268  and  _269
REMARK  114  A    between atoms: _275  and  _277
REMARK  115  A    between atoms: _277  and  _278
REMARK  116  A    between atoms: _277  and  _280
REMARK  117  A    between atoms: _280  and  _281
REMARK  118  A    between atoms: _284  and  _286
REMARK  119  A    between atoms: _286  and  _287
REMARK  120  A    between atoms: _290  and  _292
REMARK  121  A    between atoms: _292  and  _293
REMARK  122  A    between atoms: _292  and  _295
REMARK  123  A    between atoms: _295  and  _296
REMARK                            x       y       z     vdW  Elec       q    Type
REMARK                         _______ _______ _______ _____ _____    ______ ____
ROOT
ATOM      1  O   HOH     1      33.269   5.072  14.242  0.00  0.00    +0.000 OA
ENDROOT
TORSDOF 0
REMARK  Name = ../refined-set-2016/2g8r/2g8r_pocket.pdb
REMARK  123 active torsions:
REMARK  status: ('A' for Active; 'I' for Inactive)
REMARK    1  A    between atoms: _1  and  _3
REMARK    2  A    between atoms: _3  and  _4
REMARK    3  A    between atoms: _3  and  _6
REMARK    4  A    between atoms: _6  and  _7
REMARK    5  A    between atoms: _13  and  _15
REMARK    6  A    between atoms: _15  and  _16
REMARK    7  A    between atoms: _15  and  _18
REMARK    8  A    between atoms: _18  and  _19
REMARK    9  A    between atoms: _19  and  _20
REMARK   10  A    between atoms: _25  and  _27
REMARK   11  A    between atoms: _27  and  _28
REMARK   12  A    between atoms: _27  and  _30
REMARK   13  A    between atoms: _30  and  _31
REMARK   14  A    between atoms: _36  and  _38
REMARK   15  A    between atoms: _38  and  _39
REMARK   16  A    between atoms: _38  and  _41
REMARK   17  A    between atoms: _41  and  _42
REMARK   18  A    between atoms: _42  and  _43
REMARK   19  A    between atoms: _45  and  _47
REMARK   20  A    between atoms: _47  and  _48
REMARK   21  A    between atoms: _47  and  _50
REMARK   22  A    between atoms: _50  and  _51
REMARK   23  A    between atoms: _54  and  _56
REMARK   24  A    between atoms: _56  and  _57
REMARK   25  A    between atoms: _56  and  _59
REMARK   26  A    between atoms: _59  and  _60
REMARK   27  A    between atoms: _60  and  _61
REMARK   28  A    between atoms: _61  and  _62
REMARK   29  A    between atoms: _71  and  _73
REMARK   30  A    between atoms: _73  and  _74
REMARK   31  A    between atoms: _73  and  _76
REMARK   32  A    between atoms: _76  and  _77
REMARK   33  A    between atoms: _77  and  _78
REMARK   34  A    between atoms: _78  and  _79
REMARK   35  A    between atoms: _79  and  _80
REMARK   36  A    between atoms: _85  and  _86
REMARK   37  A    between atoms: _91  and  _93
REMARK   38  A    between atoms: _93  and  _94
REMARK   39  A    between atoms: _93  and  _96
REMARK   40  A    between atoms: _99  and  _101
REMARK   41  A    between atoms: _101  and  _102
REMARK   42  A    between atoms: _101  and  _104
REMARK   43  A    between atoms: _104  and  _105
REMARK   44  A    between atoms: _110  and  _112
REMARK   45  A    between atoms: _112  and  _113
REMARK   46  A    between atoms: _112  and  _115
REMARK   47  A    between atoms: _115  and  _116
REMARK   48  A    between atoms: _119  and  _121
REMARK   49  A    between atoms: _121  and  _122
REMARK   50  A    between atoms: _121  and  _124
REMARK   51  A    between atoms: _124  and  _125
REMARK   52  A    between atoms: _131  and  _133
REMARK   53  A    between atoms: _133  and  _134
REMARK   54  A    between atoms: _133  and  _136
REMARK   55  A    between atoms: _136  and  _137
REMARK   56  A    between atoms: _137  and  _185
REMARK   57  A    between atoms: _138  and  _140
REMARK   58  A    between atoms: _140  and  _141
REMARK   59  A    between atoms: _140  and  _143
REMARK   60  A    between atoms: _143  and  _144
REMARK   61  A    between atoms: _144  and  _145
REMARK   62  A    between atoms: _145  and  _146
REMARK   63  A    between atoms: _146  and  _147
REMARK   64  A    between atoms: _151  and  _153
REMARK   65  A    between atoms: _153  and  _154
REMARK   66  A    between atoms: _153  and  _156
REMARK   67  A    between atoms: _156  and  _157
REMARK   68  A    between atoms: _162  and  _164
REMARK   69  A    between atoms: _164  and  _165
REMARK   70  A    between atoms: _167  and  _169
REMARK   71  A    between atoms: _169  and  _170
REMARK   72  A    between atoms: _169  and  _172
REMARK   73  A    between atoms: _172  and  _173
REMARK   74  A    between atoms: _173  and  _174
REMARK   75  A    between atoms: _179  and  _181
REMARK   76  A    between atoms: _181  and  _182
REMARK   77  A    between atoms: _181  and  _184
REMARK   78  A    between atoms: _184  and  _185
REMARK   79  A    between atoms: _186  and  _188
REMARK   80  A    between atoms: _188  and  _189
REMARK   81  A    between atoms: _188  and  _191
REMARK   82  A    between atoms: _191  and  _192
REMARK   83  A    between atoms: _195  and  _197
REMARK   84  A    between atoms: _197  and  _198
REMARK   85  A    between atoms: _197  and  _200
REMARK   86  A    between atoms: _200  and  _201
REMARK   87  A    between atoms: _204  and  _206
REMARK   88  A    between atoms: _206  and  _207
REMARK   89  A    between atoms: _206  and  _209
REMARK   90  A    between atoms: _209  and  _210
REMARK   91  A    between atoms: _213  and  _215
REMARK   92  A    between atoms: _215  and  _216
REMARK   93  A    between atoms: _215  and  _218
REMARK   94  A    between atoms: _220  and  _222
REMARK   95  A    between atoms: _222  and  _223
REMARK   96  A    between atoms: _222  and  _225
REMARK   97  A    between atoms: _225  and  _226
REMARK   98  A    between atoms: _226  and  _227
REMARK   99  A    between atoms: _227  and  _228
REMARK  100  A    between atoms: _237  and  _239
REMARK  101  A    between atoms: _239  and  _240
REMARK  102  A    between atoms: _239  and  _242
REMARK  103  A    between atoms: _242  and  _243
REMARK  104  A    between atoms: _246  and  _248
REMARK  105  A    between atoms: _248  and  _249
REMARK  106  A    between atoms: _252  and  _254
REMARK  107  A    between atoms: _254  and  _255
REMARK  108  A    between atoms: _254  and  _257
REMARK  109  A    between atoms: _257  and  _258
REMARK  110  A    between atoms: _263  and  _265
REMARK  111  A    between atoms: _265  and  _266
REMARK  112  A    between atoms: _265  and  _268
REMARK  113  A    between atoms: _268  and  _269
REMARK  114  A    between atoms: _275  and  _277
REMARK  115  A    between atoms: _277  and  _278
REMARK  116  A    between atoms: _277  and  _280
REMARK  117  A    between atoms: _280  and  _281
REMARK  118  A    between atoms: _284  and  _286
REMARK  119  A    between atoms: _286  and  _287
REMARK  120  A    between atoms: _290  and  _292
REMARK  121  A    between atoms: _292  and  _293
REMARK  122  A    between atoms: _292  and  _295
REMARK  123  A    between atoms: _295  and  _296
REMARK                            x       y       z     vdW  Elec       q    Type
REMARK                         _______ _______ _______ _____ _____    ______ ____
ROOT
ATOM      1  O   HOH     1      35.013  -3.070  22.769  0.00  0.00    +0.000 OA
ENDROOT
TORSDOF 0
REMARK  Name = ../refined-set-2016/2g8r/2g8r_pocket.pdb
REMARK  123 active torsions:
REMARK  status: ('A' for Active; 'I' for Inactive)
REMARK    1  A    between atoms: _1  and  _3
REMARK    2  A    between atoms: _3  and  _4
REMARK    3  A    between atoms: _3  and  _6
REMARK    4  A    between atoms: _6  and  _7
REMARK    5  A    between atoms: _13  and  _15
REMARK    6  A    between atoms: _15  and  _16
REMARK    7  A    between atoms: _15  and  _18
REMARK    8  A    between atoms: _18  and  _19
REMARK    9  A    between atoms: _19  and  _20
REMARK   10  A    between atoms: _25  and  _27
REMARK   11  A    between atoms: _27  and  _28
REMARK   12  A    between atoms: _27  and  _30
REMARK   13  A    between atoms: _30  and  _31
REMARK   14  A    between atoms: _36  and  _38
REMARK   15  A    between atoms: _38  and  _39
REMARK   16  A    between atoms: _38  and  _41
REMARK   17  A    between atoms: _41  and  _42
REMARK   18  A    between atoms: _42  and  _43
REMARK   19  A    between atoms: _45  and  _47
REMARK   20  A    between atoms: _47  and  _48
REMARK   21  A    between atoms: _47  and  _50
REMARK   22  A    between atoms: _50  and  _51
REMARK   23  A    between atoms: _54  and  _56
REMARK   24  A    between atoms: _56  and  _57
REMARK   25  A    between atoms: _56  and  _59
REMARK   26  A    between atoms: _59  and  _60
REMARK   27  A    between atoms: _60  and  _61
REMARK   28  A    between atoms: _61  and  _62
REMARK   29  A    between atoms: _71  and  _73
REMARK   30  A    between atoms: _73  and  _74
REMARK   31  A    between atoms: _73  and  _76
REMARK   32  A    between atoms: _76  and  _77
REMARK   33  A    between atoms: _77  and  _78
REMARK   34  A    between atoms: _78  and  _79
REMARK   35  A    between atoms: _79  and  _80
REMARK   36  A    between atoms: _85  and  _86
REMARK   37  A    between atoms: _91  and  _93
REMARK   38  A    between atoms: _93  and  _94
REMARK   39  A    between atoms: _93  and  _96
REMARK   40  A    between atoms: _99  and  _101
REMARK   41  A    between atoms: _101  and  _102
REMARK   42  A    between atoms: _101  and  _104
REMARK   43  A    between atoms: _104  and  _105
REMARK   44  A    between atoms: _110  and  _112
REMARK   45  A    between atoms: _112  and  _113
REMARK   46  A    between atoms: _112  and  _115
REMARK   47  A    between atoms: _115  and  _116
REMARK   48  A    between atoms: _119  and  _121
REMARK   49  A    between atoms: _121  and  _122
REMARK   50  A    between atoms: _121  and  _124
REMARK   51  A    between atoms: _124  and  _125
REMARK   52  A    between atoms: _131  and  _133
REMARK   53  A    between atoms: _133  and  _134
REMARK   54  A    between atoms: _133  and  _136
REMARK   55  A    between atoms: _136  and  _137
REMARK   56  A    between atoms: _137  and  _185
REMARK   57  A    between atoms: _138  and  _140
REMARK   58  A    between atoms: _140  and  _141
REMARK   59  A    between atoms: _140  and  _143
REMARK   60  A    between atoms: _143  and  _144
REMARK   61  A    between atoms: _144  and  _145
REMARK   62  A    between atoms: _145  and  _146
REMARK   63  A    between atoms: _146  and  _147
REMARK   64  A    between atoms: _151  and  _153
REMARK   65  A    between atoms: _153  and  _154
REMARK   66  A    between atoms: _153  and  _156
REMARK   67  A    between atoms: _156  and  _157
REMARK   68  A    between atoms: _162  and  _164
REMARK   69  A    between atoms: _164  and  _165
REMARK   70  A    between atoms: _167  and  _169
REMARK   71  A    between atoms: _169  and  _170
REMARK   72  A    between atoms: _169  and  _172
REMARK   73  A    between atoms: _172  and  _173
REMARK   74  A    between atoms: _173  and  _174
REMARK   75  A    between atoms: _179  and  _181
REMARK   76  A    between atoms: _181  and  _182
REMARK   77  A    between atoms: _181  and  _184
REMARK   78  A    between atoms: _184  and  _185
REMARK   79  A    between atoms: _186  and  _188
REMARK   80  A    between atoms: _188  and  _189
REMARK   81  A    between atoms: _188  and  _191
REMARK   82  A    between atoms: _191  and  _192
REMARK   83  A    between atoms: _195  and  _197
REMARK   84  A    between atoms: _197  and  _198
REMARK   85  A    between atoms: _197  and  _200
REMARK   86  A    between atoms: _200  and  _201
REMARK   87  A    between atoms: _204  and  _206
REMARK   88  A    between atoms: _206  and  _207
REMARK   89  A    between atoms: _206  and  _209
REMARK   90  A    between atoms: _209  and  _210
REMARK   91  A    between atoms: _213  and  _215
REMARK   92  A    between atoms: _215  and  _216
REMARK   93  A    between atoms: _215  and  _218
REMARK   94  A    between atoms: _220  and  _222
REMARK   95  A    between atoms: _222  and  _223
REMARK   96  A    between atoms: _222  and  _225
REMARK   97  A    between atoms: _225  and  _226
REMARK   98  A    between atoms: _226  and  _227
REMARK   99  A    between atoms: _227  and  _228
REMARK  100  A    between atoms: _237  and  _239
REMARK  101  A    between atoms: _239  and  _240
REMARK  102  A    between atoms: _239  and  _242
REMARK  103  A    between atoms: _242  and  _243
REMARK  104  A    between atoms: _246  and  _248
REMARK  105  A    between atoms: _248  and  _249
REMARK  106  A    between atoms: _252  and  _254
REMARK  107  A    between atoms: _254  and  _255
REMARK  108  A    between atoms: _254  and  _257
REMARK  109  A    between atoms: _257  and  _258
REMARK  110  A    between atoms: _263  and  _265
REMARK  111  A    between atoms: _265  and  _266
REMARK  112  A    between atoms: _265  and  _268
REMARK  113  A    between atoms: _268  and  _269
REMARK  114  A    between atoms: _275  and  _277
REMARK  115  A    between atoms: _277  and  _278
REMARK  116  A    between atoms: _277  and  _280
REMARK  117  A    between atoms: _280  and  _281
REMARK  118  A    between atoms: _284  and  _286
REMARK  119  A    between atoms: _286  and  _287
REMARK  120  A    between atoms: _290  and  _292
REMARK  121  A    between atoms: _292  and  _293
REMARK  122  A    between atoms: _292  and  _295
REMARK  123  A    between atoms: _295  and  _296
REMARK                            x       y       z     vdW  Elec       q    Type
REMARK                         _______ _______ _______ _____ _____    ______ ____
ROOT
ATOM      1  O   HOH     1      34.016  -5.562  23.860  0.00  0.00    +0.000 OA
ENDROOT
TORSDOF 0
REMARK  Name = ../refined-set-2016/2g8r/2g8r_pocket.pdb
REMARK  123 active torsions:
REMARK  status: ('A' for Active; 'I' for Inactive)
REMARK    1  A    between atoms: _1  and  _3
REMARK    2  A    between atoms: _3  and  _4
REMARK    3  A    between atoms: _3  and  _6
REMARK    4  A    between atoms: _6  and  _7
REMARK    5  A    between atoms: _13  and  _15
REMARK    6  A    between atoms: _15  and  _16
REMARK    7  A    between atoms: _15  and  _18
REMARK    8  A    between atoms: _18  and  _19
REMARK    9  A    between atoms: _19  and  _20
REMARK   10  A    between atoms: _25  and  _27
REMARK   11  A    between atoms: _27  and  _28
REMARK   12  A    between atoms: _27  and  _30
REMARK   13  A    between atoms: _30  and  _31
REMARK   14  A    between atoms: _36  and  _38
REMARK   15  A    between atoms: _38  and  _39
REMARK   16  A    between atoms: _38  and  _41
REMARK   17  A    between atoms: _41  and  _42
REMARK   18  A    between atoms: _42  and  _43
REMARK   19  A    between atoms: _45  and  _47
REMARK   20  A    between atoms: _47  and  _48
REMARK   21  A    between atoms: _47  and  _50
REMARK   22  A    between atoms: _50  and  _51
REMARK   23  A    between atoms: _54  and  _56
REMARK   24  A    between atoms: _56  and  _57
REMARK   25  A    between atoms: _56  and  _59
REMARK   26  A    between atoms: _59  and  _60
REMARK   27  A    between atoms: _60  and  _61
REMARK   28  A    between atoms: _61  and  _62
REMARK   29  A    between atoms: _71  and  _73
REMARK   30  A    between atoms: _73  and  _74
REMARK   31  A    between atoms: _73  and  _76
REMARK   32  A    between atoms: _76  and  _77
REMARK   33  A    between atoms: _77  and  _78
REMARK   34  A    between atoms: _78  and  _79
REMARK   35  A    between atoms: _79  and  _80
REMARK   36  A    between atoms: _85  and  _86
REMARK   37  A    between atoms: _91  and  _93
REMARK   38  A    between atoms: _93  and  _94
REMARK   39  A    between atoms: _93  and  _96
REMARK   40  A    between atoms: _99  and  _101
REMARK   41  A    between atoms: _101  and  _102
REMARK   42  A    between atoms: _101  and  _104
REMARK   43  A    between atoms: _104  and  _105
REMARK   44  A    between atoms: _110  and  _112
REMARK   45  A    between atoms: _112  and  _113
REMARK   46  A    between atoms: _112  and  _115
REMARK   47  A    between atoms: _115  and  _116
REMARK   48  A    between atoms: _119  and  _121
REMARK   49  A    between atoms: _121  and  _122
REMARK   50  A    between atoms: _121  and  _124
REMARK   51  A    between atoms: _124  and  _125
REMARK   52  A    between atoms: _131  and  _133
REMARK   53  A    between atoms: _133  and  _134
REMARK   54  A    between atoms: _133  and  _136
REMARK   55  A    between atoms: _136  and  _137
REMARK   56  A    between atoms: _137  and  _185
REMARK   57  A    between atoms: _138  and  _140
REMARK   58  A    between atoms: _140  and  _141
REMARK   59  A    between atoms: _140  and  _143
REMARK   60  A    between atoms: _143  and  _144
REMARK   61  A    between atoms: _144  and  _145
REMARK   62  A    between atoms: _145  and  _146
REMARK   63  A    between atoms: _146  and  _147
REMARK   64  A    between atoms: _151  and  _153
REMARK   65  A    between atoms: _153  and  _154
REMARK   66  A    between atoms: _153  and  _156
REMARK   67  A    between atoms: _156  and  _157
REMARK   68  A    between atoms: _162  and  _164
REMARK   69  A    between atoms: _164  and  _165
REMARK   70  A    between atoms: _167  and  _169
REMARK   71  A    between atoms: _169  and  _170
REMARK   72  A    between atoms: _169  and  _172
REMARK   73  A    between atoms: _172  and  _173
REMARK   74  A    between atoms: _173  and  _174
REMARK   75  A    between atoms: _179  and  _181
REMARK   76  A    between atoms: _181  and  _182
REMARK   77  A    between atoms: _181  and  _184
REMARK   78  A    between atoms: _184  and  _185
REMARK   79  A    between atoms: _186  and  _188
REMARK   80  A    between atoms: _188  and  _189
REMARK   81  A    between atoms: _188  and  _191
REMARK   82  A    between atoms: _191  and  _192
REMARK   83  A    between atoms: _195  and  _197
REMARK   84  A    between atoms: _197  and  _198
REMARK   85  A    between atoms: _197  and  _200
REMARK   86  A    between atoms: _200  and  _201
REMARK   87  A    between atoms: _204  and  _206
REMARK   88  A    between atoms: _206  and  _207
REMARK   89  A    between atoms: _206  and  _209
REMARK   90  A    between atoms: _209  and  _210
REMARK   91  A    between atoms: _213  and  _215
REMARK   92  A    between atoms: _215  and  _216
REMARK   93  A    between atoms: _215  and  _218
REMARK   94  A    between atoms: _220  and  _222
REMARK   95  A    between atoms: _222  and  _223
REMARK   96  A    between atoms: _222  and  _225
REMARK   97  A    between atoms: _225  and  _226
REMARK   98  A    between atoms: _226  and  _227
REMARK   99  A    between atoms: _227  and  _228
REMARK  100  A    between atoms: _237  and  _239
REMARK  101  A    between atoms: _239  and  _240
REMARK  102  A    between atoms: _239  and  _242
REMARK  103  A    between atoms: _242  and  _243
REMARK  104  A    between atoms: _246  and  _248
REMARK  105  A    between atoms: _248  and  _249
REMARK  106  A    between atoms: _252  and  _254
REMARK  107  A    between atoms: _254  and  _255
REMARK  108  A    between atoms: _254  and  _257
REMARK  109  A    between atoms: _257  and  _258
REMARK  110  A    between atoms: _263  and  _265
REMARK  111  A    between atoms: _265  and  _266
REMARK  112  A    between atoms: _265  and  _268
REMARK  113  A    between atoms: _268  and  _269
REMARK  114  A    between atoms: _275  and  _277
REMARK  115  A    between atoms: _277  and  _278
REMARK  116  A    between atoms: _277  and  _280
REMARK  117  A    between atoms: _280  and  _281
REMARK  118  A    between atoms: _284  and  _286
REMARK  119  A    between atoms: _286  and  _287
REMARK  120  A    between atoms: _290  and  _292
REMARK  121  A    between atoms: _292  and  _293
REMARK  122  A    between atoms: _292  and  _295
REMARK  123  A    between atoms: _295  and  _296
REMARK                            x       y       z     vdW  Elec       q    Type
REMARK                         _______ _______ _______ _____ _____    ______ ____
ROOT
ATOM      1  O   HOH     1      37.361   0.606  14.680  0.00  0.00    +0.000 OA
ENDROOT
TORSDOF 0
REMARK  Name = ../refined-set-2016/2g8r/2g8r_pocket.pdb
REMARK  123 active torsions:
REMARK  status: ('A' for Active; 'I' for Inactive)
REMARK    1  A    between atoms: _1  and  _3
REMARK    2  A    between atoms: _3  and  _4
REMARK    3  A    between atoms: _3  and  _6
REMARK    4  A    between atoms: _6  and  _7
REMARK    5  A    between atoms: _13  and  _15
REMARK    6  A    between atoms: _15  and  _16
REMARK    7  A    between atoms: _15  and  _18
REMARK    8  A    between atoms: _18  and  _19
REMARK    9  A    between atoms: _19  and  _20
REMARK   10  A    between atoms: _25  and  _27
REMARK   11  A    between atoms: _27  and  _28
REMARK   12  A    between atoms: _27  and  _30
REMARK   13  A    between atoms: _30  and  _31
REMARK   14  A    between atoms: _36  and  _38
REMARK   15  A    between atoms: _38  and  _39
REMARK   16  A    between atoms: _38  and  _41
REMARK   17  A    between atoms: _41  and  _42
REMARK   18  A    between atoms: _42  and  _43
REMARK   19  A    between atoms: _45  and  _47
REMARK   20  A    between atoms: _47  and  _48
REMARK   21  A    between atoms: _47  and  _50
REMARK   22  A    between atoms: _50  and  _51
REMARK   23  A    between atoms: _54  and  _56
REMARK   24  A    between atoms: _56  and  _57
REMARK   25  A    between atoms: _56  and  _59
REMARK   26  A    between atoms: _59  and  _60
REMARK   27  A    between atoms: _60  and  _61
REMARK   28  A    between atoms: _61  and  _62
REMARK   29  A    between atoms: _71  and  _73
REMARK   30  A    between atoms: _73  and  _74
REMARK   31  A    between atoms: _73  and  _76
REMARK   32  A    between atoms: _76  and  _77
REMARK   33  A    between atoms: _77  and  _78
REMARK   34  A    between atoms: _78  and  _79
REMARK   35  A    between atoms: _79  and  _80
REMARK   36  A    between atoms: _85  and  _86
REMARK   37  A    between atoms: _91  and  _93
REMARK   38  A    between atoms: _93  and  _94
REMARK   39  A    between atoms: _93  and  _96
REMARK   40  A    between atoms: _99  and  _101
REMARK   41  A    between atoms: _101  and  _102
REMARK   42  A    between atoms: _101  and  _104
REMARK   43  A    between atoms: _104  and  _105
REMARK   44  A    between atoms: _110  and  _112
REMARK   45  A    between atoms: _112  and  _113
REMARK   46  A    between atoms: _112  and  _115
REMARK   47  A    between atoms: _115  and  _116
REMARK   48  A    between atoms: _119  and  _121
REMARK   49  A    between atoms: _121  and  _122
REMARK   50  A    between atoms: _121  and  _124
REMARK   51  A    between atoms: _124  and  _125
REMARK   52  A    between atoms: _131  and  _133
REMARK   53  A    between atoms: _133  and  _134
REMARK   54  A    between atoms: _133  and  _136
REMARK   55  A    between atoms: _136  and  _137
REMARK   56  A    between atoms: _137  and  _185
REMARK   57  A    between atoms: _138  and  _140
REMARK   58  A    between atoms: _140  and  _141
REMARK   59  A    between atoms: _140  and  _143
REMARK   60  A    between atoms: _143  and  _144
REMARK   61  A    between atoms: _144  and  _145
REMARK   62  A    between atoms: _145  and  _146
REMARK   63  A    between atoms: _146  and  _147
REMARK   64  A    between atoms: _151  and  _153
REMARK   65  A    between atoms: _153  and  _154
REMARK   66  A    between atoms: _153  and  _156
REMARK   67  A    between atoms: _156  and  _157
REMARK   68  A    between atoms: _162  and  _164
REMARK   69  A    between atoms: _164  and  _165
REMARK   70  A    between atoms: _167  and  _169
REMARK   71  A    between atoms: _169  and  _170
REMARK   72  A    between atoms: _169  and  _172
REMARK   73  A    between atoms: _172  and  _173
REMARK   74  A    between atoms: _173  and  _174
REMARK   75  A    between atoms: _179  and  _181
REMARK   76  A    between atoms: _181  and  _182
REMARK   77  A    between atoms: _181  and  _184
REMARK   78  A    between atoms: _184  and  _185
REMARK   79  A    between atoms: _186  and  _188
REMARK   80  A    between atoms: _188  and  _189
REMARK   81  A    between atoms: _188  and  _191
REMARK   82  A    between atoms: _191  and  _192
REMARK   83  A    between atoms: _195  and  _197
REMARK   84  A    between atoms: _197  and  _198
REMARK   85  A    between atoms: _197  and  _200
REMARK   86  A    between atoms: _200  and  _201
REMARK   87  A    between atoms: _204  and  _206
REMARK   88  A    between atoms: _206  and  _207
REMARK   89  A    between atoms: _206  and  _209
REMARK   90  A    between atoms: _209  and  _210
REMARK   91  A    between atoms: _213  and  _215
REMARK   92  A    between atoms: _215  and  _216
REMARK   93  A    between atoms: _215  and  _218
REMARK   94  A    between atoms: _220  and  _222
REMARK   95  A    between atoms: _222  and  _223
REMARK   96  A    between atoms: _222  and  _225
REMARK   97  A    between atoms: _225  and  _226
REMARK   98  A    between atoms: _226  and  _227
REMARK   99  A    between atoms: _227  and  _228
REMARK  100  A    between atoms: _237  and  _239
REMARK  101  A    between atoms: _239  and  _240
REMARK  102  A    between atoms: _239  and  _242
REMARK  103  A    between atoms: _242  and  _243
REMARK  104  A    between atoms: _246  and  _248
REMARK  105  A    between atoms: _248  and  _249
REMARK  106  A    between atoms: _252  and  _254
REMARK  107  A    between atoms: _254  and  _255
REMARK  108  A    between atoms: _254  and  _257
REMARK  109  A    between atoms: _257  and  _258
REMARK  110  A    between atoms: _263  and  _265
REMARK  111  A    between atoms: _265  and  _266
REMARK  112  A    between atoms: _265  and  _268
REMARK  113  A    between atoms: _268  and  _269
REMARK  114  A    between atoms: _275  and  _277
REMARK  115  A    between atoms: _277  and  _278
REMARK  116  A    between atoms: _277  and  _280
REMARK  117  A    between atoms: _280  and  _281
REMARK  118  A    between atoms: _284  and  _286
REMARK  119  A    between atoms: _286  and  _287
REMARK  120  A    between atoms: _290  and  _292
REMARK  121  A    between atoms: _292  and  _293
REMARK  122  A    between atoms: _292  and  _295
REMARK  123  A    between atoms: _295  and  _296
REMARK                            x       y       z     vdW  Elec       q    Type
REMARK                         _______ _______ _______ _____ _____    ______ ____
ROOT
ATOM      1  O   HOH     1      40.635   1.964  26.701  0.00  0.00    +0.000 OA
ENDROOT
TORSDOF 0
REMARK  Name = ../refined-set-2016/2g8r/2g8r_pocket.pdb
REMARK  123 active torsions:
REMARK  status: ('A' for Active; 'I' for Inactive)
REMARK    1  A    between atoms: _1  and  _3
REMARK    2  A    between atoms: _3  and  _4
REMARK    3  A    between atoms: _3  and  _6
REMARK    4  A    between atoms: _6  and  _7
REMARK    5  A    between atoms: _13  and  _15
REMARK    6  A    between atoms: _15  and  _16
REMARK    7  A    between atoms: _15  and  _18
REMARK    8  A    between atoms: _18  and  _19
REMARK    9  A    between atoms: _19  and  _20
REMARK   10  A    between atoms: _25  and  _27
REMARK   11  A    between atoms: _27  and  _28
REMARK   12  A    between atoms: _27  and  _30
REMARK   13  A    between atoms: _30  and  _31
REMARK   14  A    between atoms: _36  and  _38
REMARK   15  A    between atoms: _38  and  _39
REMARK   16  A    between atoms: _38  and  _41
REMARK   17  A    between atoms: _41  and  _42
REMARK   18  A    between atoms: _42  and  _43
REMARK   19  A    between atoms: _45  and  _47
REMARK   20  A    between atoms: _47  and  _48
REMARK   21  A    between atoms: _47  and  _50
REMARK   22  A    between atoms: _50  and  _51
REMARK   23  A    between atoms: _54  and  _56
REMARK   24  A    between atoms: _56  and  _57
REMARK   25  A    between atoms: _56  and  _59
REMARK   26  A    between atoms: _59  and  _60
REMARK   27  A    between atoms: _60  and  _61
REMARK   28  A    between atoms: _61  and  _62
REMARK   29  A    between atoms: _71  and  _73
REMARK   30  A    between atoms: _73  and  _74
REMARK   31  A    between atoms: _73  and  _76
REMARK   32  A    between atoms: _76  and  _77
REMARK   33  A    between atoms: _77  and  _78
REMARK   34  A    between atoms: _78  and  _79
REMARK   35  A    between atoms: _79  and  _80
REMARK   36  A    between atoms: _85  and  _86
REMARK   37  A    between atoms: _91  and  _93
REMARK   38  A    between atoms: _93  and  _94
REMARK   39  A    between atoms: _93  and  _96
REMARK   40  A    between atoms: _99  and  _101
REMARK   41  A    between atoms: _101  and  _102
REMARK   42  A    between atoms: _101  and  _104
REMARK   43  A    between atoms: _104  and  _105
REMARK   44  A    between atoms: _110  and  _112
REMARK   45  A    between atoms: _112  and  _113
REMARK   46  A    between atoms: _112  and  _115
REMARK   47  A    between atoms: _115  and  _116
REMARK   48  A    between atoms: _119  and  _121
REMARK   49  A    between atoms: _121  and  _122
REMARK   50  A    between atoms: _121  and  _124
REMARK   51  A    between atoms: _124  and  _125
REMARK   52  A    between atoms: _131  and  _133
REMARK   53  A    between atoms: _133  and  _134
REMARK   54  A    between atoms: _133  and  _136
REMARK   55  A    between atoms: _136  and  _137
REMARK   56  A    between atoms: _137  and  _185
REMARK   57  A    between atoms: _138  and  _140
REMARK   58  A    between atoms: _140  and  _141
REMARK   59  A    between atoms: _140  and  _143
REMARK   60  A    between atoms: _143  and  _144
REMARK   61  A    between atoms: _144  and  _145
REMARK   62  A    between atoms: _145  and  _146
REMARK   63  A    between atoms: _146  and  _147
REMARK   64  A    between atoms: _151  and  _153
REMARK   65  A    between atoms: _153  and  _154
REMARK   66  A    between atoms: _153  and  _156
REMARK   67  A    between atoms: _156  and  _157
REMARK   68  A    between atoms: _162  and  _164
REMARK   69  A    between atoms: _164  and  _165
REMARK   70  A    between atoms: _167  and  _169
REMARK   71  A    between atoms: _169  and  _170
REMARK   72  A    between atoms: _169  and  _172
REMARK   73  A    between atoms: _172  and  _173
REMARK   74  A    between atoms: _173  and  _174
REMARK   75  A    between atoms: _179  and  _181
REMARK   76  A    between atoms: _181  and  _182
REMARK   77  A    between atoms: _181  and  _184
REMARK   78  A    between atoms: _184  and  _185
REMARK   79  A    between atoms: _186  and  _188
REMARK   80  A    between atoms: _188  and  _189
REMARK   81  A    between atoms: _188  and  _191
REMARK   82  A    between atoms: _191  and  _192
REMARK   83  A    between atoms: _195  and  _197
REMARK   84  A    between atoms: _197  and  _198
REMARK   85  A    between atoms: _197  and  _200
REMARK   86  A    between atoms: _200  and  _201
REMARK   87  A    between atoms: _204  and  _206
REMARK   88  A    between atoms: _206  and  _207
REMARK   89  A    between atoms: _206  and  _209
REMARK   90  A    between atoms: _209  and  _210
REMARK   91  A    between atoms: _213  and  _215
REMARK   92  A    between atoms: _215  and  _216
REMARK   93  A    between atoms: _215  and  _218
REMARK   94  A    between atoms: _220  and  _222
REMARK   95  A    between atoms: _222  and  _223
REMARK   96  A    between atoms: _222  and  _225
REMARK   97  A    between atoms: _225  and  _226
REMARK   98  A    between atoms: _226  and  _227
REMARK   99  A    between atoms: _227  and  _228
REMARK  100  A    between atoms: _237  and  _239
REMARK  101  A    between atoms: _239  and  _240
REMARK  102  A    between atoms: _239  and  _242
REMARK  103  A    between atoms: _242  and  _243
REMARK  104  A    between atoms: _246  and  _248
REMARK  105  A    between atoms: _248  and  _249
REMARK  106  A    between atoms: _252  and  _254
REMARK  107  A    between atoms: _254  and  _255
REMARK  108  A    between atoms: _254  and  _257
REMARK  109  A    between atoms: _257  and  _258
REMARK  110  A    between atoms: _263  and  _265
REMARK  111  A    between atoms: _265  and  _266
REMARK  112  A    between atoms: _265  and  _268
REMARK  113  A    between atoms: _268  and  _269
REMARK  114  A    between atoms: _275  and  _277
REMARK  115  A    between atoms: _277  and  _278
REMARK  116  A    between atoms: _277  and  _280
REMARK  117  A    between atoms: _280  and  _281
REMARK  118  A    between atoms: _284  and  _286
REMARK  119  A    between atoms: _286  and  _287
REMARK  120  A    between atoms: _290  and  _292
REMARK  121  A    between atoms: _292  and  _293
REMARK  122  A    between atoms: _292  and  _295
REMARK  123  A    between atoms: _295  and  _296
REMARK                            x       y       z     vdW  Elec       q    Type
REMARK                         _______ _______ _______ _____ _____    ______ ____
ROOT
ATOM      1  O   HOH     1      39.235   7.863  19.058  0.00  0.00    +0.000 OA
ENDROOT
TORSDOF 0
REMARK  Name = ../refined-set-2016/2g8r/2g8r_pocket.pdb
REMARK  123 active torsions:
REMARK  status: ('A' for Active; 'I' for Inactive)
REMARK    1  A    between atoms: _1  and  _3
REMARK    2  A    between atoms: _3  and  _4
REMARK    3  A    between atoms: _3  and  _6
REMARK    4  A    between atoms: _6  and  _7
REMARK    5  A    between atoms: _13  and  _15
REMARK    6  A    between atoms: _15  and  _16
REMARK    7  A    between atoms: _15  and  _18
REMARK    8  A    between atoms: _18  and  _19
REMARK    9  A    between atoms: _19  and  _20
REMARK   10  A    between atoms: _25  and  _27
REMARK   11  A    between atoms: _27  and  _28
REMARK   12  A    between atoms: _27  and  _30
REMARK   13  A    between atoms: _30  and  _31
REMARK   14  A    between atoms: _36  and  _38
REMARK   15  A    between atoms: _38  and  _39
REMARK   16  A    between atoms: _38  and  _41
REMARK   17  A    between atoms: _41  and  _42
REMARK   18  A    between atoms: _42  and  _43
REMARK   19  A    between atoms: _45  and  _47
REMARK   20  A    between atoms: _47  and  _48
REMARK   21  A    between atoms: _47  and  _50
REMARK   22  A    between atoms: _50  and  _51
REMARK   23  A    between atoms: _54  and  _56
REMARK   24  A    between atoms: _56  and  _57
REMARK   25  A    between atoms: _56  and  _59
REMARK   26  A    between atoms: _59  and  _60
REMARK   27  A    between atoms: _60  and  _61
REMARK   28  A    between atoms: _61  and  _62
REMARK   29  A    between atoms: _71  and  _73
REMARK   30  A    between atoms: _73  and  _74
REMARK   31  A    between atoms: _73  and  _76
REMARK   32  A    between atoms: _76  and  _77
REMARK   33  A    between atoms: _77  and  _78
REMARK   34  A    between atoms: _78  and  _79
REMARK   35  A    between atoms: _79  and  _80
REMARK   36  A    between atoms: _85  and  _86
REMARK   37  A    between atoms: _91  and  _93
REMARK   38  A    between atoms: _93  and  _94
REMARK   39  A    between atoms: _93  and  _96
REMARK   40  A    between atoms: _99  and  _101
REMARK   41  A    between atoms: _101  and  _102
REMARK   42  A    between atoms: _101  and  _104
REMARK   43  A    between atoms: _104  and  _105
REMARK   44  A    between atoms: _110  and  _112
REMARK   45  A    between atoms: _112  and  _113
REMARK   46  A    between atoms: _112  and  _115
REMARK   47  A    between atoms: _115  and  _116
REMARK   48  A    between atoms: _119  and  _121
REMARK   49  A    between atoms: _121  and  _122
REMARK   50  A    between atoms: _121  and  _124
REMARK   51  A    between atoms: _124  and  _125
REMARK   52  A    between atoms: _131  and  _133
REMARK   53  A    between atoms: _133  and  _134
REMARK   54  A    between atoms: _133  and  _136
REMARK   55  A    between atoms: _136  and  _137
REMARK   56  A    between atoms: _137  and  _185
REMARK   57  A    between atoms: _138  and  _140
REMARK   58  A    between atoms: _140  and  _141
REMARK   59  A    between atoms: _140  and  _143
REMARK   60  A    between atoms: _143  and  _144
REMARK   61  A    between atoms: _144  and  _145
REMARK   62  A    between atoms: _145  and  _146
REMARK   63  A    between atoms: _146  and  _147
REMARK   64  A    between atoms: _151  and  _153
REMARK   65  A    between atoms: _153  and  _154
REMARK   66  A    between atoms: _153  and  _156
REMARK   67  A    between atoms: _156  and  _157
REMARK   68  A    between atoms: _162  and  _164
REMARK   69  A    between atoms: _164  and  _165
REMARK   70  A    between atoms: _167  and  _169
REMARK   71  A    between atoms: _169  and  _170
REMARK   72  A    between atoms: _169  and  _172
REMARK   73  A    between atoms: _172  and  _173
REMARK   74  A    between atoms: _173  and  _174
REMARK   75  A    between atoms: _179  and  _181
REMARK   76  A    between atoms: _181  and  _182
REMARK   77  A    between atoms: _181  and  _184
REMARK   78  A    between atoms: _184  and  _185
REMARK   79  A    between atoms: _186  and  _188
REMARK   80  A    between atoms: _188  and  _189
REMARK   81  A    between atoms: _188  and  _191
REMARK   82  A    between atoms: _191  and  _192
REMARK   83  A    between atoms: _195  and  _197
REMARK   84  A    between atoms: _197  and  _198
REMARK   85  A    between atoms: _197  and  _200
REMARK   86  A    between atoms: _200  and  _201
REMARK   87  A    between atoms: _204  and  _206
REMARK   88  A    between atoms: _206  and  _207
REMARK   89  A    between atoms: _206  and  _209
REMARK   90  A    between atoms: _209  and  _210
REMARK   91  A    between atoms: _213  and  _215
REMARK   92  A    between atoms: _215  and  _216
REMARK   93  A    between atoms: _215  and  _218
REMARK   94  A    between atoms: _220  and  _222
REMARK   95  A    between atoms: _222  and  _223
REMARK   96  A    between atoms: _222  and  _225
REMARK   97  A    between atoms: _225  and  _226
REMARK   98  A    between atoms: _226  and  _227
REMARK   99  A    between atoms: _227  and  _228
REMARK  100  A    between atoms: _237  and  _239
REMARK  101  A    between atoms: _239  and  _240
REMARK  102  A    between atoms: _239  and  _242
REMARK  103  A    between atoms: _242  and  _243
REMARK  104  A    between atoms: _246  and  _248
REMARK  105  A    between atoms: _248  and  _249
REMARK  106  A    between atoms: _252  and  _254
REMARK  107  A    between atoms: _254  and  _255
REMARK  108  A    between atoms: _254  and  _257
REMARK  109  A    between atoms: _257  and  _258
REMARK  110  A    between atoms: _263  and  _265
REMARK  111  A    between atoms: _265  and  _266
REMARK  112  A    between atoms: _265  and  _268
REMARK  113  A    between atoms: _268  and  _269
REMARK  114  A    between atoms: _275  and  _277
REMARK  115  A    between atoms: _277  and  _278
REMARK  116  A    between atoms: _277  and  _280
REMARK  117  A    between atoms: _280  and  _281
REMARK  118  A    between atoms: _284  and  _286
REMARK  119  A    between atoms: _286  and  _287
REMARK  120  A    between atoms: _290  and  _292
REMARK  121  A    between atoms: _292  and  _293
REMARK  122  A    between atoms: _292  and  _295
REMARK  123  A    between atoms: _295  and  _296
REMARK                            x       y       z     vdW  Elec       q    Type
REMARK                         _______ _______ _______ _____ _____    ______ ____
ROOT
ATOM      1  O   HOH     1      39.626   5.697  24.315  0.00  0.00    +0.000 OA
ENDROOT
TORSDOF 0
REMARK  Name = ../refined-set-2016/2g8r/2g8r_pocket.pdb
REMARK  123 active torsions:
REMARK  status: ('A' for Active; 'I' for Inactive)
REMARK    1  A    between atoms: _1  and  _3
REMARK    2  A    between atoms: _3  and  _4
REMARK    3  A    between atoms: _3  and  _6
REMARK    4  A    between atoms: _6  and  _7
REMARK    5  A    between atoms: _13  and  _15
REMARK    6  A    between atoms: _15  and  _16
REMARK    7  A    between atoms: _15  and  _18
REMARK    8  A    between atoms: _18  and  _19
REMARK    9  A    between atoms: _19  and  _20
REMARK   10  A    between atoms: _25  and  _27
REMARK   11  A    between atoms: _27  and  _28
REMARK   12  A    between atoms: _27  and  _30
REMARK   13  A    between atoms: _30  and  _31
REMARK   14  A    between atoms: _36  and  _38
REMARK   15  A    between atoms: _38  and  _39
REMARK   16  A    between atoms: _38  and  _41
REMARK   17  A    between atoms: _41  and  _42
REMARK   18  A    between atoms: _42  and  _43
REMARK   19  A    between atoms: _45  and  _47
REMARK   20  A    between atoms: _47  and  _48
REMARK   21  A    between atoms: _47  and  _50
REMARK   22  A    between atoms: _50  and  _51
REMARK   23  A    between atoms: _54  and  _56
REMARK   24  A    between atoms: _56  and  _57
REMARK   25  A    between atoms: _56  and  _59
REMARK   26  A    between atoms: _59  and  _60
REMARK   27  A    between atoms: _60  and  _61
REMARK   28  A    between atoms: _61  and  _62
REMARK   29  A    between atoms: _71  and  _73
REMARK   30  A    between atoms: _73  and  _74
REMARK   31  A    between atoms: _73  and  _76
REMARK   32  A    between atoms: _76  and  _77
REMARK   33  A    between atoms: _77  and  _78
REMARK   34  A    between atoms: _78  and  _79
REMARK   35  A    between atoms: _79  and  _80
REMARK   36  A    between atoms: _85  and  _86
REMARK   37  A    between atoms: _91  and  _93
REMARK   38  A    between atoms: _93  and  _94
REMARK   39  A    between atoms: _93  and  _96
REMARK   40  A    between atoms: _99  and  _101
REMARK   41  A    between atoms: _101  and  _102
REMARK   42  A    between atoms: _101  and  _104
REMARK   43  A    between atoms: _104  and  _105
REMARK   44  A    between atoms: _110  and  _112
REMARK   45  A    between atoms: _112  and  _113
REMARK   46  A    between atoms: _112  and  _115
REMARK   47  A    between atoms: _115  and  _116
REMARK   48  A    between atoms: _119  and  _121
REMARK   49  A    between atoms: _121  and  _122
REMARK   50  A    between atoms: _121  and  _124
REMARK   51  A    between atoms: _124  and  _125
REMARK   52  A    between atoms: _131  and  _133
REMARK   53  A    between atoms: _133  and  _134
REMARK   54  A    between atoms: _133  and  _136
REMARK   55  A    between atoms: _136  and  _137
REMARK   56  A    between atoms: _137  and  _185
REMARK   57  A    between atoms: _138  and  _140
REMARK   58  A    between atoms: _140  and  _141
REMARK   59  A    between atoms: _140  and  _143
REMARK   60  A    between atoms: _143  and  _144
REMARK   61  A    between atoms: _144  and  _145
REMARK   62  A    between atoms: _145  and  _146
REMARK   63  A    between atoms: _146  and  _147
REMARK   64  A    between atoms: _151  and  _153
REMARK   65  A    between atoms: _153  and  _154
REMARK   66  A    between atoms: _153  and  _156
REMARK   67  A    between atoms: _156  and  _157
REMARK   68  A    between atoms: _162  and  _164
REMARK   69  A    between atoms: _164  and  _165
REMARK   70  A    between atoms: _167  and  _169
REMARK   71  A    between atoms: _169  and  _170
REMARK   72  A    between atoms: _169  and  _172
REMARK   73  A    between atoms: _172  and  _173
REMARK   74  A    between atoms: _173  and  _174
REMARK   75  A    between atoms: _179  and  _181
REMARK   76  A    between atoms: _181  and  _182
REMARK   77  A    between atoms: _181  and  _184
REMARK   78  A    between atoms: _184  and  _185
REMARK   79  A    between atoms: _186  and  _188
REMARK   80  A    between atoms: _188  and  _189
REMARK   81  A    between atoms: _188  and  _191
REMARK   82  A    between atoms: _191  and  _192
REMARK   83  A    between atoms: _195  and  _197
REMARK   84  A    between atoms: _197  and  _198
REMARK   85  A    between atoms: _197  and  _200
REMARK   86  A    between atoms: _200  and  _201
REMARK   87  A    between atoms: _204  and  _206
REMARK   88  A    between atoms: _206  and  _207
REMARK   89  A    between atoms: _206  and  _209
REMARK   90  A    between atoms: _209  and  _210
REMARK   91  A    between atoms: _213  and  _215
REMARK   92  A    between atoms: _215  and  _216
REMARK   93  A    between atoms: _215  and  _218
REMARK   94  A    between atoms: _220  and  _222
REMARK   95  A    between atoms: _222  and  _223
REMARK   96  A    between atoms: _222  and  _225
REMARK   97  A    between atoms: _225  and  _226
REMARK   98  A    between atoms: _226  and  _227
REMARK   99  A    between atoms: _227  and  _228
REMARK  100  A    between atoms: _237  and  _239
REMARK  101  A    between atoms: _239  and  _240
REMARK  102  A    between atoms: _239  and  _242
REMARK  103  A    between atoms: _242  and  _243
REMARK  104  A    between atoms: _246  and  _248
REMARK  105  A    between atoms: _248  and  _249
REMARK  106  A    between atoms: _252  and  _254
REMARK  107  A    between atoms: _254  and  _255
REMARK  108  A    between atoms: _254  and  _257
REMARK  109  A    between atoms: _257  and  _258
REMARK  110  A    between atoms: _263  and  _265
REMARK  111  A    between atoms: _265  and  _266
REMARK  112  A    between atoms: _265  and  _268
REMARK  113  A    between atoms: _268  and  _269
REMARK  114  A    between atoms: _275  and  _277
REMARK  115  A    between atoms: _277  and  _278
REMARK  116  A    between atoms: _277  and  _280
REMARK  117  A    between atoms: _280  and  _281
REMARK  118  A    between atoms: _284  and  _286
REMARK  119  A    between atoms: _286  and  _287
REMARK  120  A    between atoms: _290  and  _292
REMARK  121  A    between atoms: _292  and  _293
REMARK  122  A    between atoms: _292  and  _295
REMARK  123  A    between atoms: _295  and  _296
REMARK                            x       y       z     vdW  Elec       q    Type
REMARK                         _______ _______ _______ _____ _____    ______ ____
ROOT
ATOM      1  O   HOH     1      37.229  -4.433  20.874  0.00  0.00    +0.000 OA
ENDROOT
TORSDOF 0
REMARK  Name = ../refined-set-2016/2g8r/2g8r_pocket.pdb
REMARK  123 active torsions:
REMARK  status: ('A' for Active; 'I' for Inactive)
REMARK    1  A    between atoms: _1  and  _3
REMARK    2  A    between atoms: _3  and  _4
REMARK    3  A    between atoms: _3  and  _6
REMARK    4  A    between atoms: _6  and  _7
REMARK    5  A    between atoms: _13  and  _15
REMARK    6  A    between atoms: _15  and  _16
REMARK    7  A    between atoms: _15  and  _18
REMARK    8  A    between atoms: _18  and  _19
REMARK    9  A    between atoms: _19  and  _20
REMARK   10  A    between atoms: _25  and  _27
REMARK   11  A    between atoms: _27  and  _28
REMARK   12  A    between atoms: _27  and  _30
REMARK   13  A    between atoms: _30  and  _31
REMARK   14  A    between atoms: _36  and  _38
REMARK   15  A    between atoms: _38  and  _39
REMARK   16  A    between atoms: _38  and  _41
REMARK   17  A    between atoms: _41  and  _42
REMARK   18  A    between atoms: _42  and  _43
REMARK   19  A    between atoms: _45  and  _47
REMARK   20  A    between atoms: _47  and  _48
REMARK   21  A    between atoms: _47  and  _50
REMARK   22  A    between atoms: _50  and  _51
REMARK   23  A    between atoms: _54  and  _56
REMARK   24  A    between atoms: _56  and  _57
REMARK   25  A    between atoms: _56  and  _59
REMARK   26  A    between atoms: _59  and  _60
REMARK   27  A    between atoms: _60  and  _61
REMARK   28  A    between atoms: _61  and  _62
REMARK   29  A    between atoms: _71  and  _73
REMARK   30  A    between atoms: _73  and  _74
REMARK   31  A    between atoms: _73  and  _76
REMARK   32  A    between atoms: _76  and  _77
REMARK   33  A    between atoms: _77  and  _78
REMARK   34  A    between atoms: _78  and  _79
REMARK   35  A    between atoms: _79  and  _80
REMARK   36  A    between atoms: _85  and  _86
REMARK   37  A    between atoms: _91  and  _93
REMARK   38  A    between atoms: _93  and  _94
REMARK   39  A    between atoms: _93  and  _96
REMARK   40  A    between atoms: _99  and  _101
REMARK   41  A    between atoms: _101  and  _102
REMARK   42  A    between atoms: _101  and  _104
REMARK   43  A    between atoms: _104  and  _105
REMARK   44  A    between atoms: _110  and  _112
REMARK   45  A    between atoms: _112  and  _113
REMARK   46  A    between atoms: _112  and  _115
REMARK   47  A    between atoms: _115  and  _116
REMARK   48  A    between atoms: _119  and  _121
REMARK   49  A    between atoms: _121  and  _122
REMARK   50  A    between atoms: _121  and  _124
REMARK   51  A    between atoms: _124  and  _125
REMARK   52  A    between atoms: _131  and  _133
REMARK   53  A    between atoms: _133  and  _134
REMARK   54  A    between atoms: _133  and  _136
REMARK   55  A    between atoms: _136  and  _137
REMARK   56  A    between atoms: _137  and  _185
REMARK   57  A    between atoms: _138  and  _140
REMARK   58  A    between atoms: _140  and  _141
REMARK   59  A    between atoms: _140  and  _143
REMARK   60  A    between atoms: _143  and  _144
REMARK   61  A    between atoms: _144  and  _145
REMARK   62  A    between atoms: _145  and  _146
REMARK   63  A    between atoms: _146  and  _147
REMARK   64  A    between atoms: _151  and  _153
REMARK   65  A    between atoms: _153  and  _154
REMARK   66  A    between atoms: _153  and  _156
REMARK   67  A    between atoms: _156  and  _157
REMARK   68  A    between atoms: _162  and  _164
REMARK   69  A    between atoms: _164  and  _165
REMARK   70  A    between atoms: _167  and  _169
REMARK   71  A    between atoms: _169  and  _170
REMARK   72  A    between atoms: _169  and  _172
REMARK   73  A    between atoms: _172  and  _173
REMARK   74  A    between atoms: _173  and  _174
REMARK   75  A    between atoms: _179  and  _181
REMARK   76  A    between atoms: _181  and  _182
REMARK   77  A    between atoms: _181  and  _184
REMARK   78  A    between atoms: _184  and  _185
REMARK   79  A    between atoms: _186  and  _188
REMARK   80  A    between atoms: _188  and  _189
REMARK   81  A    between atoms: _188  and  _191
REMARK   82  A    between atoms: _191  and  _192
REMARK   83  A    between atoms: _195  and  _197
REMARK   84  A    between atoms: _197  and  _198
REMARK   85  A    between atoms: _197  and  _200
REMARK   86  A    between atoms: _200  and  _201
REMARK   87  A    between atoms: _204  and  _206
REMARK   88  A    between atoms: _206  and  _207
REMARK   89  A    between atoms: _206  and  _209
REMARK   90  A    between atoms: _209  and  _210
REMARK   91  A    between atoms: _213  and  _215
REMARK   92  A    between atoms: _215  and  _216
REMARK   93  A    between atoms: _215  and  _218
REMARK   94  A    between atoms: _220  and  _222
REMARK   95  A    between atoms: _222  and  _223
REMARK   96  A    between atoms: _222  and  _225
REMARK   97  A    between atoms: _225  and  _226
REMARK   98  A    between atoms: _226  and  _227
REMARK   99  A    between atoms: _227  and  _228
REMARK  100  A    between atoms: _237  and  _239
REMARK  101  A    between atoms: _239  and  _240
REMARK  102  A    between atoms: _239  and  _242
REMARK  103  A    between atoms: _242  and  _243
REMARK  104  A    between atoms: _246  and  _248
REMARK  105  A    between atoms: _248  and  _249
REMARK  106  A    between atoms: _252  and  _254
REMARK  107  A    between atoms: _254  and  _255
REMARK  108  A    between atoms: _254  and  _257
REMARK  109  A    between atoms: _257  and  _258
REMARK  110  A    between atoms: _263  and  _265
REMARK  111  A    between atoms: _265  and  _266
REMARK  112  A    between atoms: _265  and  _268
REMARK  113  A    between atoms: _268  and  _269
REMARK  114  A    between atoms: _275  and  _277
REMARK  115  A    between atoms: _277  and  _278
REMARK  116  A    between atoms: _277  and  _280
REMARK  117  A    between atoms: _280  and  _281
REMARK  118  A    between atoms: _284  and  _286
REMARK  119  A    between atoms: _286  and  _287
REMARK  120  A    between atoms: _290  and  _292
REMARK  121  A    between atoms: _292  and  _293
REMARK  122  A    between atoms: _292  and  _295
REMARK  123  A    between atoms: _295  and  _296
REMARK                            x       y       z     vdW  Elec       q    Type
REMARK                         _______ _______ _______ _____ _____    ______ ____
ROOT
ATOM      1  O   HOH     1      41.253   6.096  13.357  0.00  0.00    +0.000 OA
ENDROOT
TORSDOF 0
REMARK  Name = ../refined-set-2016/2g8r/2g8r_pocket.pdb
REMARK  123 active torsions:
REMARK  status: ('A' for Active; 'I' for Inactive)
REMARK    1  A    between atoms: _1  and  _3
REMARK    2  A    between atoms: _3  and  _4
REMARK    3  A    between atoms: _3  and  _6
REMARK    4  A    between atoms: _6  and  _7
REMARK    5  A    between atoms: _13  and  _15
REMARK    6  A    between atoms: _15  and  _16
REMARK    7  A    between atoms: _15  and  _18
REMARK    8  A    between atoms: _18  and  _19
REMARK    9  A    between atoms: _19  and  _20
REMARK   10  A    between atoms: _25  and  _27
REMARK   11  A    between atoms: _27  and  _28
REMARK   12  A    between atoms: _27  and  _30
REMARK   13  A    between atoms: _30  and  _31
REMARK   14  A    between atoms: _36  and  _38
REMARK   15  A    between atoms: _38  and  _39
REMARK   16  A    between atoms: _38  and  _41
REMARK   17  A    between atoms: _41  and  _42
REMARK   18  A    between atoms: _42  and  _43
REMARK   19  A    between atoms: _45  and  _47
REMARK   20  A    between atoms: _47  and  _48
REMARK   21  A    between atoms: _47  and  _50
REMARK   22  A    between atoms: _50  and  _51
REMARK   23  A    between atoms: _54  and  _56
REMARK   24  A    between atoms: _56  and  _57
REMARK   25  A    between atoms: _56  and  _59
REMARK   26  A    between atoms: _59  and  _60
REMARK   27  A    between atoms: _60  and  _61
REMARK   28  A    between atoms: _61  and  _62
REMARK   29  A    between atoms: _71  and  _73
REMARK   30  A    between atoms: _73  and  _74
REMARK   31  A    between atoms: _73  and  _76
REMARK   32  A    between atoms: _76  and  _77
REMARK   33  A    between atoms: _77  and  _78
REMARK   34  A    between atoms: _78  and  _79
REMARK   35  A    between atoms: _79  and  _80
REMARK   36  A    between atoms: _85  and  _86
REMARK   37  A    between atoms: _91  and  _93
REMARK   38  A    between atoms: _93  and  _94
REMARK   39  A    between atoms: _93  and  _96
REMARK   40  A    between atoms: _99  and  _101
REMARK   41  A    between atoms: _101  and  _102
REMARK   42  A    between atoms: _101  and  _104
REMARK   43  A    between atoms: _104  and  _105
REMARK   44  A    between atoms: _110  and  _112
REMARK   45  A    between atoms: _112  and  _113
REMARK   46  A    between atoms: _112  and  _115
REMARK   47  A    between atoms: _115  and  _116
REMARK   48  A    between atoms: _119  and  _121
REMARK   49  A    between atoms: _121  and  _122
REMARK   50  A    between atoms: _121  and  _124
REMARK   51  A    between atoms: _124  and  _125
REMARK   52  A    between atoms: _131  and  _133
REMARK   53  A    between atoms: _133  and  _134
REMARK   54  A    between atoms: _133  and  _136
REMARK   55  A    between atoms: _136  and  _137
REMARK   56  A    between atoms: _137  and  _185
REMARK   57  A    between atoms: _138  and  _140
REMARK   58  A    between atoms: _140  and  _141
REMARK   59  A    between atoms: _140  and  _143
REMARK   60  A    between atoms: _143  and  _144
REMARK   61  A    between atoms: _144  and  _145
REMARK   62  A    between atoms: _145  and  _146
REMARK   63  A    between atoms: _146  and  _147
REMARK   64  A    between atoms: _151  and  _153
REMARK   65  A    between atoms: _153  and  _154
REMARK   66  A    between atoms: _153  and  _156
REMARK   67  A    between atoms: _156  and  _157
REMARK   68  A    between atoms: _162  and  _164
REMARK   69  A    between atoms: _164  and  _165
REMARK   70  A    between atoms: _167  and  _169
REMARK   71  A    between atoms: _169  and  _170
REMARK   72  A    between atoms: _169  and  _172
REMARK   73  A    between atoms: _172  and  _173
REMARK   74  A    between atoms: _173  and  _174
REMARK   75  A    between atoms: _179  and  _181
REMARK   76  A    between atoms: _181  and  _182
REMARK   77  A    between atoms: _181  and  _184
REMARK   78  A    between atoms: _184  and  _185
REMARK   79  A    between atoms: _186  and  _188
REMARK   80  A    between atoms: _188  and  _189
REMARK   81  A    between atoms: _188  and  _191
REMARK   82  A    between atoms: _191  and  _192
REMARK   83  A    between atoms: _195  and  _197
REMARK   84  A    between atoms: _197  and  _198
REMARK   85  A    between atoms: _197  and  _200
REMARK   86  A    between atoms: _200  and  _201
REMARK   87  A    between atoms: _204  and  _206
REMARK   88  A    between atoms: _206  and  _207
REMARK   89  A    between atoms: _206  and  _209
REMARK   90  A    between atoms: _209  and  _210
REMARK   91  A    between atoms: _213  and  _215
REMARK   92  A    between atoms: _215  and  _216
REMARK   93  A    between atoms: _215  and  _218
REMARK   94  A    between atoms: _220  and  _222
REMARK   95  A    between atoms: _222  and  _223
REMARK   96  A    between atoms: _222  and  _225
REMARK   97  A    between atoms: _225  and  _226
REMARK   98  A    between atoms: _226  and  _227
REMARK   99  A    between atoms: _227  and  _228
REMARK  100  A    between atoms: _237  and  _239
REMARK  101  A    between atoms: _239  and  _240
REMARK  102  A    between atoms: _239  and  _242
REMARK  103  A    between atoms: _242  and  _243
REMARK  104  A    between atoms: _246  and  _248
REMARK  105  A    between atoms: _248  and  _249
REMARK  106  A    between atoms: _252  and  _254
REMARK  107  A    between atoms: _254  and  _255
REMARK  108  A    between atoms: _254  and  _257
REMARK  109  A    between atoms: _257  and  _258
REMARK  110  A    between atoms: _263  and  _265
REMARK  111  A    between atoms: _265  and  _266
REMARK  112  A    between atoms: _265  and  _268
REMARK  113  A    between atoms: _268  and  _269
REMARK  114  A    between atoms: _275  and  _277
REMARK  115  A    between atoms: _277  and  _278
REMARK  116  A    between atoms: _277  and  _280
REMARK  117  A    between atoms: _280  and  _281
REMARK  118  A    between atoms: _284  and  _286
REMARK  119  A    between atoms: _286  and  _287
REMARK  120  A    between atoms: _290  and  _292
REMARK  121  A    between atoms: _292  and  _293
REMARK  122  A    between atoms: _292  and  _295
REMARK  123  A    between atoms: _295  and  _296
REMARK                            x       y       z     vdW  Elec       q    Type
REMARK                         _______ _______ _______ _____ _____    ______ ____
ROOT
ATOM      1  O   HOH     1      35.266   9.235  19.240  0.00  0.00    +0.000 OA
ENDROOT
TORSDOF 0
REMARK  Name = ../refined-set-2016/2g8r/2g8r_pocket.pdb
REMARK  123 active torsions:
REMARK  status: ('A' for Active; 'I' for Inactive)
REMARK    1  A    between atoms: _1  and  _3
REMARK    2  A    between atoms: _3  and  _4
REMARK    3  A    between atoms: _3  and  _6
REMARK    4  A    between atoms: _6  and  _7
REMARK    5  A    between atoms: _13  and  _15
REMARK    6  A    between atoms: _15  and  _16
REMARK    7  A    between atoms: _15  and  _18
REMARK    8  A    between atoms: _18  and  _19
REMARK    9  A    between atoms: _19  and  _20
REMARK   10  A    between atoms: _25  and  _27
REMARK   11  A    between atoms: _27  and  _28
REMARK   12  A    between atoms: _27  and  _30
REMARK   13  A    between atoms: _30  and  _31
REMARK   14  A    between atoms: _36  and  _38
REMARK   15  A    between atoms: _38  and  _39
REMARK   16  A    between atoms: _38  and  _41
REMARK   17  A    between atoms: _41  and  _42
REMARK   18  A    between atoms: _42  and  _43
REMARK   19  A    between atoms: _45  and  _47
REMARK   20  A    between atoms: _47  and  _48
REMARK   21  A    between atoms: _47  and  _50
REMARK   22  A    between atoms: _50  and  _51
REMARK   23  A    between atoms: _54  and  _56
REMARK   24  A    between atoms: _56  and  _57
REMARK   25  A    between atoms: _56  and  _59
REMARK   26  A    between atoms: _59  and  _60
REMARK   27  A    between atoms: _60  and  _61
REMARK   28  A    between atoms: _61  and  _62
REMARK   29  A    between atoms: _71  and  _73
REMARK   30  A    between atoms: _73  and  _74
REMARK   31  A    between atoms: _73  and  _76
REMARK   32  A    between atoms: _76  and  _77
REMARK   33  A    between atoms: _77  and  _78
REMARK   34  A    between atoms: _78  and  _79
REMARK   35  A    between atoms: _79  and  _80
REMARK   36  A    between atoms: _85  and  _86
REMARK   37  A    between atoms: _91  and  _93
REMARK   38  A    between atoms: _93  and  _94
REMARK   39  A    between atoms: _93  and  _96
REMARK   40  A    between atoms: _99  and  _101
REMARK   41  A    between atoms: _101  and  _102
REMARK   42  A    between atoms: _101  and  _104
REMARK   43  A    between atoms: _104  and  _105
REMARK   44  A    between atoms: _110  and  _112
REMARK   45  A    between atoms: _112  and  _113
REMARK   46  A    between atoms: _112  and  _115
REMARK   47  A    between atoms: _115  and  _116
REMARK   48  A    between atoms: _119  and  _121
REMARK   49  A    between atoms: _121  and  _122
REMARK   50  A    between atoms: _121  and  _124
REMARK   51  A    between atoms: _124  and  _125
REMARK   52  A    between atoms: _131  and  _133
REMARK   53  A    between atoms: _133  and  _134
REMARK   54  A    between atoms: _133  and  _136
REMARK   55  A    between atoms: _136  and  _137
REMARK   56  A    between atoms: _137  and  _185
REMARK   57  A    between atoms: _138  and  _140
REMARK   58  A    between atoms: _140  and  _141
REMARK   59  A    between atoms: _140  and  _143
REMARK   60  A    between atoms: _143  and  _144
REMARK   61  A    between atoms: _144  and  _145
REMARK   62  A    between atoms: _145  and  _146
REMARK   63  A    between atoms: _146  and  _147
REMARK   64  A    between atoms: _151  and  _153
REMARK   65  A    between atoms: _153  and  _154
REMARK   66  A    between atoms: _153  and  _156
REMARK   67  A    between atoms: _156  and  _157
REMARK   68  A    between atoms: _162  and  _164
REMARK   69  A    between atoms: _164  and  _165
REMARK   70  A    between atoms: _167  and  _169
REMARK   71  A    between atoms: _169  and  _170
REMARK   72  A    between atoms: _169  and  _172
REMARK   73  A    between atoms: _172  and  _173
REMARK   74  A    between atoms: _173  and  _174
REMARK   75  A    between atoms: _179  and  _181
REMARK   76  A    between atoms: _181  and  _182
REMARK   77  A    between atoms: _181  and  _184
REMARK   78  A    between atoms: _184  and  _185
REMARK   79  A    between atoms: _186  and  _188
REMARK   80  A    between atoms: _188  and  _189
REMARK   81  A    between atoms: _188  and  _191
REMARK   82  A    between atoms: _191  and  _192
REMARK   83  A    between atoms: _195  and  _197
REMARK   84  A    between atoms: _197  and  _198
REMARK   85  A    between atoms: _197  and  _200
REMARK   86  A    between atoms: _200  and  _201
REMARK   87  A    between atoms: _204  and  _206
REMARK   88  A    between atoms: _206  and  _207
REMARK   89  A    between atoms: _206  and  _209
REMARK   90  A    between atoms: _209  and  _210
REMARK   91  A    between atoms: _213  and  _215
REMARK   92  A    between atoms: _215  and  _216
REMARK   93  A    between atoms: _215  and  _218
REMARK   94  A    between atoms: _220  and  _222
REMARK   95  A    between atoms: _222  and  _223
REMARK   96  A    between atoms: _222  and  _225
REMARK   97  A    between atoms: _225  and  _226
REMARK   98  A    between atoms: _226  and  _227
REMARK   99  A    between atoms: _227  and  _228
REMARK  100  A    between atoms: _237  and  _239
REMARK  101  A    between atoms: _239  and  _240
REMARK  102  A    between atoms: _239  and  _242
REMARK  103  A    between atoms: _242  and  _243
REMARK  104  A    between atoms: _246  and  _248
REMARK  105  A    between atoms: _248  and  _249
REMARK  106  A    between atoms: _252  and  _254
REMARK  107  A    between atoms: _254  and  _255
REMARK  108  A    between atoms: _254  and  _257
REMARK  109  A    between atoms: _257  and  _258
REMARK  110  A    between atoms: _263  and  _265
REMARK  111  A    between atoms: _265  and  _266
REMARK  112  A    between atoms: _265  and  _268
REMARK  113  A    between atoms: _268  and  _269
REMARK  114  A    between atoms: _275  and  _277
REMARK  115  A    between atoms: _277  and  _278
REMARK  116  A    between atoms: _277  and  _280
REMARK  117  A    between atoms: _280  and  _281
REMARK  118  A    between atoms: _284  and  _286
REMARK  119  A    between atoms: _286  and  _287
REMARK  120  A    between atoms: _290  and  _292
REMARK  121  A    between atoms: _292  and  _293
REMARK  122  A    between atoms: _292  and  _295
REMARK  123  A    between atoms: _295  and  _296
REMARK                            x       y       z     vdW  Elec       q    Type
REMARK                         _______ _______ _______ _____ _____    ______ ____
ROOT
ATOM      1  O   HOH     1      41.220  -3.178  14.018  0.00  0.00    +0.000 OA
ENDROOT
TORSDOF 0
REMARK  Name = ../refined-set-2016/2g8r/2g8r_pocket.pdb
REMARK  123 active torsions:
REMARK  status: ('A' for Active; 'I' for Inactive)
REMARK    1  A    between atoms: _1  and  _3
REMARK    2  A    between atoms: _3  and  _4
REMARK    3  A    between atoms: _3  and  _6
REMARK    4  A    between atoms: _6  and  _7
REMARK    5  A    between atoms: _13  and  _15
REMARK    6  A    between atoms: _15  and  _16
REMARK    7  A    between atoms: _15  and  _18
REMARK    8  A    between atoms: _18  and  _19
REMARK    9  A    between atoms: _19  and  _20
REMARK   10  A    between atoms: _25  and  _27
REMARK   11  A    between atoms: _27  and  _28
REMARK   12  A    between atoms: _27  and  _30
REMARK   13  A    between atoms: _30  and  _31
REMARK   14  A    between atoms: _36  and  _38
REMARK   15  A    between atoms: _38  and  _39
REMARK   16  A    between atoms: _38  and  _41
REMARK   17  A    between atoms: _41  and  _42
REMARK   18  A    between atoms: _42  and  _43
REMARK   19  A    between atoms: _45  and  _47
REMARK   20  A    between atoms: _47  and  _48
REMARK   21  A    between atoms: _47  and  _50
REMARK   22  A    between atoms: _50  and  _51
REMARK   23  A    between atoms: _54  and  _56
REMARK   24  A    between atoms: _56  and  _57
REMARK   25  A    between atoms: _56  and  _59
REMARK   26  A    between atoms: _59  and  _60
REMARK   27  A    between atoms: _60  and  _61
REMARK   28  A    between atoms: _61  and  _62
REMARK   29  A    between atoms: _71  and  _73
REMARK   30  A    between atoms: _73  and  _74
REMARK   31  A    between atoms: _73  and  _76
REMARK   32  A    between atoms: _76  and  _77
REMARK   33  A    between atoms: _77  and  _78
REMARK   34  A    between atoms: _78  and  _79
REMARK   35  A    between atoms: _79  and  _80
REMARK   36  A    between atoms: _85  and  _86
REMARK   37  A    between atoms: _91  and  _93
REMARK   38  A    between atoms: _93  and  _94
REMARK   39  A    between atoms: _93  and  _96
REMARK   40  A    between atoms: _99  and  _101
REMARK   41  A    between atoms: _101  and  _102
REMARK   42  A    between atoms: _101  and  _104
REMARK   43  A    between atoms: _104  and  _105
REMARK   44  A    between atoms: _110  and  _112
REMARK   45  A    between atoms: _112  and  _113
REMARK   46  A    between atoms: _112  and  _115
REMARK   47  A    between atoms: _115  and  _116
REMARK   48  A    between atoms: _119  and  _121
REMARK   49  A    between atoms: _121  and  _122
REMARK   50  A    between atoms: _121  and  _124
REMARK   51  A    between atoms: _124  and  _125
REMARK   52  A    between atoms: _131  and  _133
REMARK   53  A    between atoms: _133  and  _134
REMARK   54  A    between atoms: _133  and  _136
REMARK   55  A    between atoms: _136  and  _137
REMARK   56  A    between atoms: _137  and  _185
REMARK   57  A    between atoms: _138  and  _140
REMARK   58  A    between atoms: _140  and  _141
REMARK   59  A    between atoms: _140  and  _143
REMARK   60  A    between atoms: _143  and  _144
REMARK   61  A    between atoms: _144  and  _145
REMARK   62  A    between atoms: _145  and  _146
REMARK   63  A    between atoms: _146  and  _147
REMARK   64  A    between atoms: _151  and  _153
REMARK   65  A    between atoms: _153  and  _154
REMARK   66  A    between atoms: _153  and  _156
REMARK   67  A    between atoms: _156  and  _157
REMARK   68  A    between atoms: _162  and  _164
REMARK   69  A    between atoms: _164  and  _165
REMARK   70  A    between atoms: _167  and  _169
REMARK   71  A    between atoms: _169  and  _170
REMARK   72  A    between atoms: _169  and  _172
REMARK   73  A    between atoms: _172  and  _173
REMARK   74  A    between atoms: _173  and  _174
REMARK   75  A    between atoms: _179  and  _181
REMARK   76  A    between atoms: _181  and  _182
REMARK   77  A    between atoms: _181  and  _184
REMARK   78  A    between atoms: _184  and  _185
REMARK   79  A    between atoms: _186  and  _188
REMARK   80  A    between atoms: _188  and  _189
REMARK   81  A    between atoms: _188  and  _191
REMARK   82  A    between atoms: _191  and  _192
REMARK   83  A    between atoms: _195  and  _197
REMARK   84  A    between atoms: _197  and  _198
REMARK   85  A    between atoms: _197  and  _200
REMARK   86  A    between atoms: _200  and  _201
REMARK   87  A    between atoms: _204  and  _206
REMARK   88  A    between atoms: _206  and  _207
REMARK   89  A    between atoms: _206  and  _209
REMARK   90  A    between atoms: _209  and  _210
REMARK   91  A    between atoms: _213  and  _215
REMARK   92  A    between atoms: _215  and  _216
REMARK   93  A    between atoms: _215  and  _218
REMARK   94  A    between atoms: _220  and  _222
REMARK   95  A    between atoms: _222  and  _223
REMARK   96  A    between atoms: _222  and  _225
REMARK   97  A    between atoms: _225  and  _226
REMARK   98  A    between atoms: _226  and  _227
REMARK   99  A    between atoms: _227  and  _228
REMARK  100  A    between atoms: _237  and  _239
REMARK  101  A    between atoms: _239  and  _240
REMARK  102  A    between atoms: _239  and  _242
REMARK  103  A    between atoms: _242  and  _243
REMARK  104  A    between atoms: _246  and  _248
REMARK  105  A    between atoms: _248  and  _249
REMARK  106  A    between atoms: _252  and  _254
REMARK  107  A    between atoms: _254  and  _255
REMARK  108  A    between atoms: _254  and  _257
REMARK  109  A    between atoms: _257  and  _258
REMARK  110  A    between atoms: _263  and  _265
REMARK  111  A    between atoms: _265  and  _266
REMARK  112  A    between atoms: _265  and  _268
REMARK  113  A    between atoms: _268  and  _269
REMARK  114  A    between atoms: _275  and  _277
REMARK  115  A    between atoms: _277  and  _278
REMARK  116  A    between atoms: _277  and  _280
REMARK  117  A    between atoms: _280  and  _281
REMARK  118  A    between atoms: _284  and  _286
REMARK  119  A    between atoms: _286  and  _287
REMARK  120  A    between atoms: _290  and  _292
REMARK  121  A    between atoms: _292  and  _293
REMARK  122  A    between atoms: _292  and  _295
REMARK  123  A    between atoms: _295  and  _296
REMARK                            x       y       z     vdW  Elec       q    Type
REMARK                         _______ _______ _______ _____ _____    ______ ____
ROOT
ATOM      1  O   HOH     1      34.157   7.813  22.374  0.00  0.00    +0.000 OA
ENDROOT
TORSDOF 0
REMARK  Name = ../refined-set-2016/2g8r/2g8r_pocket.pdb
REMARK  123 active torsions:
REMARK  status: ('A' for Active; 'I' for Inactive)
REMARK    1  A    between atoms: _1  and  _3
REMARK    2  A    between atoms: _3  and  _4
REMARK    3  A    between atoms: _3  and  _6
REMARK    4  A    between atoms: _6  and  _7
REMARK    5  A    between atoms: _13  and  _15
REMARK    6  A    between atoms: _15  and  _16
REMARK    7  A    between atoms: _15  and  _18
REMARK    8  A    between atoms: _18  and  _19
REMARK    9  A    between atoms: _19  and  _20
REMARK   10  A    between atoms: _25  and  _27
REMARK   11  A    between atoms: _27  and  _28
REMARK   12  A    between atoms: _27  and  _30
REMARK   13  A    between atoms: _30  and  _31
REMARK   14  A    between atoms: _36  and  _38
REMARK   15  A    between atoms: _38  and  _39
REMARK   16  A    between atoms: _38  and  _41
REMARK   17  A    between atoms: _41  and  _42
REMARK   18  A    between atoms: _42  and  _43
REMARK   19  A    between atoms: _45  and  _47
REMARK   20  A    between atoms: _47  and  _48
REMARK   21  A    between atoms: _47  and  _50
REMARK   22  A    between atoms: _50  and  _51
REMARK   23  A    between atoms: _54  and  _56
REMARK   24  A    between atoms: _56  and  _57
REMARK   25  A    between atoms: _56  and  _59
REMARK   26  A    between atoms: _59  and  _60
REMARK   27  A    between atoms: _60  and  _61
REMARK   28  A    between atoms: _61  and  _62
REMARK   29  A    between atoms: _71  and  _73
REMARK   30  A    between atoms: _73  and  _74
REMARK   31  A    between atoms: _73  and  _76
REMARK   32  A    between atoms: _76  and  _77
REMARK   33  A    between atoms: _77  and  _78
REMARK   34  A    between atoms: _78  and  _79
REMARK   35  A    between atoms: _79  and  _80
REMARK   36  A    between atoms: _85  and  _86
REMARK   37  A    between atoms: _91  and  _93
REMARK   38  A    between atoms: _93  and  _94
REMARK   39  A    between atoms: _93  and  _96
REMARK   40  A    between atoms: _99  and  _101
REMARK   41  A    between atoms: _101  and  _102
REMARK   42  A    between atoms: _101  and  _104
REMARK   43  A    between atoms: _104  and  _105
REMARK   44  A    between atoms: _110  and  _112
REMARK   45  A    between atoms: _112  and  _113
REMARK   46  A    between atoms: _112  and  _115
REMARK   47  A    between atoms: _115  and  _116
REMARK   48  A    between atoms: _119  and  _121
REMARK   49  A    between atoms: _121  and  _122
REMARK   50  A    between atoms: _121  and  _124
REMARK   51  A    between atoms: _124  and  _125
REMARK   52  A    between atoms: _131  and  _133
REMARK   53  A    between atoms: _133  and  _134
REMARK   54  A    between atoms: _133  and  _136
REMARK   55  A    between atoms: _136  and  _137
REMARK   56  A    between atoms: _137  and  _185
REMARK   57  A    between atoms: _138  and  _140
REMARK   58  A    between atoms: _140  and  _141
REMARK   59  A    between atoms: _140  and  _143
REMARK   60  A    between atoms: _143  and  _144
REMARK   61  A    between atoms: _144  and  _145
REMARK   62  A    between atoms: _145  and  _146
REMARK   63  A    between atoms: _146  and  _147
REMARK   64  A    between atoms: _151  and  _153
REMARK   65  A    between atoms: _153  and  _154
REMARK   66  A    between atoms: _153  and  _156
REMARK   67  A    between atoms: _156  and  _157
REMARK   68  A    between atoms: _162  and  _164
REMARK   69  A    between atoms: _164  and  _165
REMARK   70  A    between atoms: _167  and  _169
REMARK   71  A    between atoms: _169  and  _170
REMARK   72  A    between atoms: _169  and  _172
REMARK   73  A    between atoms: _172  and  _173
REMARK   74  A    between atoms: _173  and  _174
REMARK   75  A    between atoms: _179  and  _181
REMARK   76  A    between atoms: _181  and  _182
REMARK   77  A    between atoms: _181  and  _184
REMARK   78  A    between atoms: _184  and  _185
REMARK   79  A    between atoms: _186  and  _188
REMARK   80  A    between atoms: _188  and  _189
REMARK   81  A    between atoms: _188  and  _191
REMARK   82  A    between atoms: _191  and  _192
REMARK   83  A    between atoms: _195  and  _197
REMARK   84  A    between atoms: _197  and  _198
REMARK   85  A    between atoms: _197  and  _200
REMARK   86  A    between atoms: _200  and  _201
REMARK   87  A    between atoms: _204  and  _206
REMARK   88  A    between atoms: _206  and  _207
REMARK   89  A    between atoms: _206  and  _209
REMARK   90  A    between atoms: _209  and  _210
REMARK   91  A    between atoms: _213  and  _215
REMARK   92  A    between atoms: _215  and  _216
REMARK   93  A    between atoms: _215  and  _218
REMARK   94  A    between atoms: _220  and  _222
REMARK   95  A    between atoms: _222  and  _223
REMARK   96  A    between atoms: _222  and  _225
REMARK   97  A    between atoms: _225  and  _226
REMARK   98  A    between atoms: _226  and  _227
REMARK   99  A    between atoms: _227  and  _228
REMARK  100  A    between atoms: _237  and  _239
REMARK  101  A    between atoms: _239  and  _240
REMARK  102  A    between atoms: _239  and  _242
REMARK  103  A    between atoms: _242  and  _243
REMARK  104  A    between atoms: _246  and  _248
REMARK  105  A    between atoms: _248  and  _249
REMARK  106  A    between atoms: _252  and  _254
REMARK  107  A    between atoms: _254  and  _255
REMARK  108  A    between atoms: _254  and  _257
REMARK  109  A    between atoms: _257  and  _258
REMARK  110  A    between atoms: _263  and  _265
REMARK  111  A    between atoms: _265  and  _266
REMARK  112  A    between atoms: _265  and  _268
REMARK  113  A    between atoms: _268  and  _269
REMARK  114  A    between atoms: _275  and  _277
REMARK  115  A    between atoms: _277  and  _278
REMARK  116  A    between atoms: _277  and  _280
REMARK  117  A    between atoms: _280  and  _281
REMARK  118  A    between atoms: _284  and  _286
REMARK  119  A    between atoms: _286  and  _287
REMARK  120  A    between atoms: _290  and  _292
REMARK  121  A    between atoms: _292  and  _293
REMARK  122  A    between atoms: _292  and  _295
REMARK  123  A    between atoms: _295  and  _296
REMARK                            x       y       z     vdW  Elec       q    Type
REMARK                         _______ _______ _______ _____ _____    ______ ____
ROOT
ATOM      1  O   HOH     1      33.763   9.579  16.969  0.00  0.00    +0.000 OA
ENDROOT
TORSDOF 0
REMARK  Name = ../refined-set-2016/2g8r/2g8r_pocket.pdb
REMARK  123 active torsions:
REMARK  status: ('A' for Active; 'I' for Inactive)
REMARK    1  A    between atoms: _1  and  _3
REMARK    2  A    between atoms: _3  and  _4
REMARK    3  A    between atoms: _3  and  _6
REMARK    4  A    between atoms: _6  and  _7
REMARK    5  A    between atoms: _13  and  _15
REMARK    6  A    between atoms: _15  and  _16
REMARK    7  A    between atoms: _15  and  _18
REMARK    8  A    between atoms: _18  and  _19
REMARK    9  A    between atoms: _19  and  _20
REMARK   10  A    between atoms: _25  and  _27
REMARK   11  A    between atoms: _27  and  _28
REMARK   12  A    between atoms: _27  and  _30
REMARK   13  A    between atoms: _30  and  _31
REMARK   14  A    between atoms: _36  and  _38
REMARK   15  A    between atoms: _38  and  _39
REMARK   16  A    between atoms: _38  and  _41
REMARK   17  A    between atoms: _41  and  _42
REMARK   18  A    between atoms: _42  and  _43
REMARK   19  A    between atoms: _45  and  _47
REMARK   20  A    between atoms: _47  and  _48
REMARK   21  A    between atoms: _47  and  _50
REMARK   22  A    between atoms: _50  and  _51
REMARK   23  A    between atoms: _54  and  _56
REMARK   24  A    between atoms: _56  and  _57
REMARK   25  A    between atoms: _56  and  _59
REMARK   26  A    between atoms: _59  and  _60
REMARK   27  A    between atoms: _60  and  _61
REMARK   28  A    between atoms: _61  and  _62
REMARK   29  A    between atoms: _71  and  _73
REMARK   30  A    between atoms: _73  and  _74
REMARK   31  A    between atoms: _73  and  _76
REMARK   32  A    between atoms: _76  and  _77
REMARK   33  A    between atoms: _77  and  _78
REMARK   34  A    between atoms: _78  and  _79
REMARK   35  A    between atoms: _79  and  _80
REMARK   36  A    between atoms: _85  and  _86
REMARK   37  A    between atoms: _91  and  _93
REMARK   38  A    between atoms: _93  and  _94
REMARK   39  A    between atoms: _93  and  _96
REMARK   40  A    between atoms: _99  and  _101
REMARK   41  A    between atoms: _101  and  _102
REMARK   42  A    between atoms: _101  and  _104
REMARK   43  A    between atoms: _104  and  _105
REMARK   44  A    between atoms: _110  and  _112
REMARK   45  A    between atoms: _112  and  _113
REMARK   46  A    between atoms: _112  and  _115
REMARK   47  A    between atoms: _115  and  _116
REMARK   48  A    between atoms: _119  and  _121
REMARK   49  A    between atoms: _121  and  _122
REMARK   50  A    between atoms: _121  and  _124
REMARK   51  A    between atoms: _124  and  _125
REMARK   52  A    between atoms: _131  and  _133
REMARK   53  A    between atoms: _133  and  _134
REMARK   54  A    between atoms: _133  and  _136
REMARK   55  A    between atoms: _136  and  _137
REMARK   56  A    between atoms: _137  and  _185
REMARK   57  A    between atoms: _138  and  _140
REMARK   58  A    between atoms: _140  and  _141
REMARK   59  A    between atoms: _140  and  _143
REMARK   60  A    between atoms: _143  and  _144
REMARK   61  A    between atoms: _144  and  _145
REMARK   62  A    between atoms: _145  and  _146
REMARK   63  A    between atoms: _146  and  _147
REMARK   64  A    between atoms: _151  and  _153
REMARK   65  A    between atoms: _153  and  _154
REMARK   66  A    between atoms: _153  and  _156
REMARK   67  A    between atoms: _156  and  _157
REMARK   68  A    between atoms: _162  and  _164
REMARK   69  A    between atoms: _164  and  _165
REMARK   70  A    between atoms: _167  and  _169
REMARK   71  A    between atoms: _169  and  _170
REMARK   72  A    between atoms: _169  and  _172
REMARK   73  A    between atoms: _172  and  _173
REMARK   74  A    between atoms: _173  and  _174
REMARK   75  A    between atoms: _179  and  _181
REMARK   76  A    between atoms: _181  and  _182
REMARK   77  A    between atoms: _181  and  _184
REMARK   78  A    between atoms: _184  and  _185
REMARK   79  A    between atoms: _186  and  _188
REMARK   80  A    between atoms: _188  and  _189
REMARK   81  A    between atoms: _188  and  _191
REMARK   82  A    between atoms: _191  and  _192
REMARK   83  A    between atoms: _195  and  _197
REMARK   84  A    between atoms: _197  and  _198
REMARK   85  A    between atoms: _197  and  _200
REMARK   86  A    between atoms: _200  and  _201
REMARK   87  A    between atoms: _204  and  _206
REMARK   88  A    between atoms: _206  and  _207
REMARK   89  A    between atoms: _206  and  _209
REMARK   90  A    between atoms: _209  and  _210
REMARK   91  A    between atoms: _213  and  _215
REMARK   92  A    between atoms: _215  and  _216
REMARK   93  A    between atoms: _215  and  _218
REMARK   94  A    between atoms: _220  and  _222
REMARK   95  A    between atoms: _222  and  _223
REMARK   96  A    between atoms: _222  and  _225
REMARK   97  A    between atoms: _225  and  _226
REMARK   98  A    between atoms: _226  and  _227
REMARK   99  A    between atoms: _227  and  _228
REMARK  100  A    between atoms: _237  and  _239
REMARK  101  A    between atoms: _239  and  _240
REMARK  102  A    between atoms: _239  and  _242
REMARK  103  A    between atoms: _242  and  _243
REMARK  104  A    between atoms: _246  and  _248
REMARK  105  A    between atoms: _248  and  _249
REMARK  106  A    between atoms: _252  and  _254
REMARK  107  A    between atoms: _254  and  _255
REMARK  108  A    between atoms: _254  and  _257
REMARK  109  A    between atoms: _257  and  _258
REMARK  110  A    between atoms: _263  and  _265
REMARK  111  A    between atoms: _265  and  _266
REMARK  112  A    between atoms: _265  and  _268
REMARK  113  A    between atoms: _268  and  _269
REMARK  114  A    between atoms: _275  and  _277
REMARK  115  A    between atoms: _277  and  _278
REMARK  116  A    between atoms: _277  and  _280
REMARK  117  A    between atoms: _280  and  _281
REMARK  118  A    between atoms: _284  and  _286
REMARK  119  A    between atoms: _286  and  _287
REMARK  120  A    between atoms: _290  and  _292
REMARK  121  A    between atoms: _292  and  _293
REMARK  122  A    between atoms: _292  and  _295
REMARK  123  A    between atoms: _295  and  _296
REMARK                            x       y       z     vdW  Elec       q    Type
REMARK                         _______ _______ _______ _____ _____    ______ ____
ROOT
ATOM      1  O   HOH     1      39.681  -1.340  16.005  0.00  0.00    +0.000 OA
ENDROOT
TORSDOF 0
REMARK  Name = ../refined-set-2016/2g8r/2g8r_pocket.pdb
REMARK  123 active torsions:
REMARK  status: ('A' for Active; 'I' for Inactive)
REMARK    1  A    between atoms: _1  and  _3
REMARK    2  A    between atoms: _3  and  _4
REMARK    3  A    between atoms: _3  and  _6
REMARK    4  A    between atoms: _6  and  _7
REMARK    5  A    between atoms: _13  and  _15
REMARK    6  A    between atoms: _15  and  _16
REMARK    7  A    between atoms: _15  and  _18
REMARK    8  A    between atoms: _18  and  _19
REMARK    9  A    between atoms: _19  and  _20
REMARK   10  A    between atoms: _25  and  _27
REMARK   11  A    between atoms: _27  and  _28
REMARK   12  A    between atoms: _27  and  _30
REMARK   13  A    between atoms: _30  and  _31
REMARK   14  A    between atoms: _36  and  _38
REMARK   15  A    between atoms: _38  and  _39
REMARK   16  A    between atoms: _38  and  _41
REMARK   17  A    between atoms: _41  and  _42
REMARK   18  A    between atoms: _42  and  _43
REMARK   19  A    between atoms: _45  and  _47
REMARK   20  A    between atoms: _47  and  _48
REMARK   21  A    between atoms: _47  and  _50
REMARK   22  A    between atoms: _50  and  _51
REMARK   23  A    between atoms: _54  and  _56
REMARK   24  A    between atoms: _56  and  _57
REMARK   25  A    between atoms: _56  and  _59
REMARK   26  A    between atoms: _59  and  _60
REMARK   27  A    between atoms: _60  and  _61
REMARK   28  A    between atoms: _61  and  _62
REMARK   29  A    between atoms: _71  and  _73
REMARK   30  A    between atoms: _73  and  _74
REMARK   31  A    between atoms: _73  and  _76
REMARK   32  A    between atoms: _76  and  _77
REMARK   33  A    between atoms: _77  and  _78
REMARK   34  A    between atoms: _78  and  _79
REMARK   35  A    between atoms: _79  and  _80
REMARK   36  A    between atoms: _85  and  _86
REMARK   37  A    between atoms: _91  and  _93
REMARK   38  A    between atoms: _93  and  _94
REMARK   39  A    between atoms: _93  and  _96
REMARK   40  A    between atoms: _99  and  _101
REMARK   41  A    between atoms: _101  and  _102
REMARK   42  A    between atoms: _101  and  _104
REMARK   43  A    between atoms: _104  and  _105
REMARK   44  A    between atoms: _110  and  _112
REMARK   45  A    between atoms: _112  and  _113
REMARK   46  A    between atoms: _112  and  _115
REMARK   47  A    between atoms: _115  and  _116
REMARK   48  A    between atoms: _119  and  _121
REMARK   49  A    between atoms: _121  and  _122
REMARK   50  A    between atoms: _121  and  _124
REMARK   51  A    between atoms: _124  and  _125
REMARK   52  A    between atoms: _131  and  _133
REMARK   53  A    between atoms: _133  and  _134
REMARK   54  A    between atoms: _133  and  _136
REMARK   55  A    between atoms: _136  and  _137
REMARK   56  A    between atoms: _137  and  _185
REMARK   57  A    between atoms: _138  and  _140
REMARK   58  A    between atoms: _140  and  _141
REMARK   59  A    between atoms: _140  and  _143
REMARK   60  A    between atoms: _143  and  _144
REMARK   61  A    between atoms: _144  and  _145
REMARK   62  A    between atoms: _145  and  _146
REMARK   63  A    between atoms: _146  and  _147
REMARK   64  A    between atoms: _151  and  _153
REMARK   65  A    between atoms: _153  and  _154
REMARK   66  A    between atoms: _153  and  _156
REMARK   67  A    between atoms: _156  and  _157
REMARK   68  A    between atoms: _162  and  _164
REMARK   69  A    between atoms: _164  and  _165
REMARK   70  A    between atoms: _167  and  _169
REMARK   71  A    between atoms: _169  and  _170
REMARK   72  A    between atoms: _169  and  _172
REMARK   73  A    between atoms: _172  and  _173
REMARK   74  A    between atoms: _173  and  _174
REMARK   75  A    between atoms: _179  and  _181
REMARK   76  A    between atoms: _181  and  _182
REMARK   77  A    between atoms: _181  and  _184
REMARK   78  A    between atoms: _184  and  _185
REMARK   79  A    between atoms: _186  and  _188
REMARK   80  A    between atoms: _188  and  _189
REMARK   81  A    between atoms: _188  and  _191
REMARK   82  A    between atoms: _191  and  _192
REMARK   83  A    between atoms: _195  and  _197
REMARK   84  A    between atoms: _197  and  _198
REMARK   85  A    between atoms: _197  and  _200
REMARK   86  A    between atoms: _200  and  _201
REMARK   87  A    between atoms: _204  and  _206
REMARK   88  A    between atoms: _206  and  _207
REMARK   89  A    between atoms: _206  and  _209
REMARK   90  A    between atoms: _209  and  _210
REMARK   91  A    between atoms: _213  and  _215
REMARK   92  A    between atoms: _215  and  _216
REMARK   93  A    between atoms: _215  and  _218
REMARK   94  A    between atoms: _220  and  _222
REMARK   95  A    between atoms: _222  and  _223
REMARK   96  A    between atoms: _222  and  _225
REMARK   97  A    between atoms: _225  and  _226
REMARK   98  A    between atoms: _226  and  _227
REMARK   99  A    between atoms: _227  and  _228
REMARK  100  A    between atoms: _237  and  _239
REMARK  101  A    between atoms: _239  and  _240
REMARK  102  A    between atoms: _239  and  _242
REMARK  103  A    between atoms: _242  and  _243
REMARK  104  A    between atoms: _246  and  _248
REMARK  105  A    between atoms: _248  and  _249
REMARK  106  A    between atoms: _252  and  _254
REMARK  107  A    between atoms: _254  and  _255
REMARK  108  A    between atoms: _254  and  _257
REMARK  109  A    between atoms: _257  and  _258
REMARK  110  A    between atoms: _263  and  _265
REMARK  111  A    between atoms: _265  and  _266
REMARK  112  A    between atoms: _265  and  _268
REMARK  113  A    between atoms: _268  and  _269
REMARK  114  A    between atoms: _275  and  _277
REMARK  115  A    between atoms: _277  and  _278
REMARK  116  A    between atoms: _277  and  _280
REMARK  117  A    between atoms: _280  and  _281
REMARK  118  A    between atoms: _284  and  _286
REMARK  119  A    between atoms: _286  and  _287
REMARK  120  A    between atoms: _290  and  _292
REMARK  121  A    between atoms: _292  and  _293
REMARK  122  A    between atoms: _292  and  _295
REMARK  123  A    between atoms: _295  and  _296
REMARK                            x       y       z     vdW  Elec       q    Type
REMARK                         _______ _______ _______ _____ _____    ______ ____
ROOT
ATOM      1  O   HOH     1      34.730   6.595  24.811  0.00  0.00    +0.000 OA
ENDROOT
TORSDOF 0
REMARK  Name = ../refined-set-2016/2g8r/2g8r_pocket.pdb
REMARK  123 active torsions:
REMARK  status: ('A' for Active; 'I' for Inactive)
REMARK    1  A    between atoms: _1  and  _3
REMARK    2  A    between atoms: _3  and  _4
REMARK    3  A    between atoms: _3  and  _6
REMARK    4  A    between atoms: _6  and  _7
REMARK    5  A    between atoms: _13  and  _15
REMARK    6  A    between atoms: _15  and  _16
REMARK    7  A    between atoms: _15  and  _18
REMARK    8  A    between atoms: _18  and  _19
REMARK    9  A    between atoms: _19  and  _20
REMARK   10  A    between atoms: _25  and  _27
REMARK   11  A    between atoms: _27  and  _28
REMARK   12  A    between atoms: _27  and  _30
REMARK   13  A    between atoms: _30  and  _31
REMARK   14  A    between atoms: _36  and  _38
REMARK   15  A    between atoms: _38  and  _39
REMARK   16  A    between atoms: _38  and  _41
REMARK   17  A    between atoms: _41  and  _42
REMARK   18  A    between atoms: _42  and  _43
REMARK   19  A    between atoms: _45  and  _47
REMARK   20  A    between atoms: _47  and  _48
REMARK   21  A    between atoms: _47  and  _50
REMARK   22  A    between atoms: _50  and  _51
REMARK   23  A    between atoms: _54  and  _56
REMARK   24  A    between atoms: _56  and  _57
REMARK   25  A    between atoms: _56  and  _59
REMARK   26  A    between atoms: _59  and  _60
REMARK   27  A    between atoms: _60  and  _61
REMARK   28  A    between atoms: _61  and  _62
REMARK   29  A    between atoms: _71  and  _73
REMARK   30  A    between atoms: _73  and  _74
REMARK   31  A    between atoms: _73  and  _76
REMARK   32  A    between atoms: _76  and  _77
REMARK   33  A    between atoms: _77  and  _78
REMARK   34  A    between atoms: _78  and  _79
REMARK   35  A    between atoms: _79  and  _80
REMARK   36  A    between atoms: _85  and  _86
REMARK   37  A    between atoms: _91  and  _93
REMARK   38  A    between atoms: _93  and  _94
REMARK   39  A    between atoms: _93  and  _96
REMARK   40  A    between atoms: _99  and  _101
REMARK   41  A    between atoms: _101  and  _102
REMARK   42  A    between atoms: _101  and  _104
REMARK   43  A    between atoms: _104  and  _105
REMARK   44  A    between atoms: _110  and  _112
REMARK   45  A    between atoms: _112  and  _113
REMARK   46  A    between atoms: _112  and  _115
REMARK   47  A    between atoms: _115  and  _116
REMARK   48  A    between atoms: _119  and  _121
REMARK   49  A    between atoms: _121  and  _122
REMARK   50  A    between atoms: _121  and  _124
REMARK   51  A    between atoms: _124  and  _125
REMARK   52  A    between atoms: _131  and  _133
REMARK   53  A    between atoms: _133  and  _134
REMARK   54  A    between atoms: _133  and  _136
REMARK   55  A    between atoms: _136  and  _137
REMARK   56  A    between atoms: _137  and  _185
REMARK   57  A    between atoms: _138  and  _140
REMARK   58  A    between atoms: _140  and  _141
REMARK   59  A    between atoms: _140  and  _143
REMARK   60  A    between atoms: _143  and  _144
REMARK   61  A    between atoms: _144  and  _145
REMARK   62  A    between atoms: _145  and  _146
REMARK   63  A    between atoms: _146  and  _147
REMARK   64  A    between atoms: _151  and  _153
REMARK   65  A    between atoms: _153  and  _154
REMARK   66  A    between atoms: _153  and  _156
REMARK   67  A    between atoms: _156  and  _157
REMARK   68  A    between atoms: _162  and  _164
REMARK   69  A    between atoms: _164  and  _165
REMARK   70  A    between atoms: _167  and  _169
REMARK   71  A    between atoms: _169  and  _170
REMARK   72  A    between atoms: _169  and  _172
REMARK   73  A    between atoms: _172  and  _173
REMARK   74  A    between atoms: _173  and  _174
REMARK   75  A    between atoms: _179  and  _181
REMARK   76  A    between atoms: _181  and  _182
REMARK   77  A    between atoms: _181  and  _184
REMARK   78  A    between atoms: _184  and  _185
REMARK   79  A    between atoms: _186  and  _188
REMARK   80  A    between atoms: _188  and  _189
REMARK   81  A    between atoms: _188  and  _191
REMARK   82  A    between atoms: _191  and  _192
REMARK   83  A    between atoms: _195  and  _197
REMARK   84  A    between atoms: _197  and  _198
REMARK   85  A    between atoms: _197  and  _200
REMARK   86  A    between atoms: _200  and  _201
REMARK   87  A    between atoms: _204  and  _206
REMARK   88  A    between atoms: _206  and  _207
REMARK   89  A    between atoms: _206  and  _209
REMARK   90  A    between atoms: _209  and  _210
REMARK   91  A    between atoms: _213  and  _215
REMARK   92  A    between atoms: _215  and  _216
REMARK   93  A    between atoms: _215  and  _218
REMARK   94  A    between atoms: _220  and  _222
REMARK   95  A    between atoms: _222  and  _223
REMARK   96  A    between atoms: _222  and  _225
REMARK   97  A    between atoms: _225  and  _226
REMARK   98  A    between atoms: _226  and  _227
REMARK   99  A    between atoms: _227  and  _228
REMARK  100  A    between atoms: _237  and  _239
REMARK  101  A    between atoms: _239  and  _240
REMARK  102  A    between atoms: _239  and  _242
REMARK  103  A    between atoms: _242  and  _243
REMARK  104  A    between atoms: _246  and  _248
REMARK  105  A    between atoms: _248  and  _249
REMARK  106  A    between atoms: _252  and  _254
REMARK  107  A    between atoms: _254  and  _255
REMARK  108  A    between atoms: _254  and  _257
REMARK  109  A    between atoms: _257  and  _258
REMARK  110  A    between atoms: _263  and  _265
REMARK  111  A    between atoms: _265  and  _266
REMARK  112  A    between atoms: _265  and  _268
REMARK  113  A    between atoms: _268  and  _269
REMARK  114  A    between atoms: _275  and  _277
REMARK  115  A    between atoms: _277  and  _278
REMARK  116  A    between atoms: _277  and  _280
REMARK  117  A    between atoms: _280  and  _281
REMARK  118  A    between atoms: _284  and  _286
REMARK  119  A    between atoms: _286  and  _287
REMARK  120  A    between atoms: _290  and  _292
REMARK  121  A    between atoms: _292  and  _293
REMARK  122  A    between atoms: _292  and  _295
REMARK  123  A    between atoms: _295  and  _296
REMARK                            x       y       z     vdW  Elec       q    Type
REMARK                         _______ _______ _______ _____ _____    ______ ____
ROOT
ATOM      1  O   HOH     1      36.822   7.372  21.475  0.00  0.00    +0.000 OA
ENDROOT
TORSDOF 0
REMARK  Name = ../refined-set-2016/2g8r/2g8r_pocket.pdb
REMARK  123 active torsions:
REMARK  status: ('A' for Active; 'I' for Inactive)
REMARK    1  A    between atoms: _1  and  _3
REMARK    2  A    between atoms: _3  and  _4
REMARK    3  A    between atoms: _3  and  _6
REMARK    4  A    between atoms: _6  and  _7
REMARK    5  A    between atoms: _13  and  _15
REMARK    6  A    between atoms: _15  and  _16
REMARK    7  A    between atoms: _15  and  _18
REMARK    8  A    between atoms: _18  and  _19
REMARK    9  A    between atoms: _19  and  _20
REMARK   10  A    between atoms: _25  and  _27
REMARK   11  A    between atoms: _27  and  _28
REMARK   12  A    between atoms: _27  and  _30
REMARK   13  A    between atoms: _30  and  _31
REMARK   14  A    between atoms: _36  and  _38
REMARK   15  A    between atoms: _38  and  _39
REMARK   16  A    between atoms: _38  and  _41
REMARK   17  A    between atoms: _41  and  _42
REMARK   18  A    between atoms: _42  and  _43
REMARK   19  A    between atoms: _45  and  _47
REMARK   20  A    between atoms: _47  and  _48
REMARK   21  A    between atoms: _47  and  _50
REMARK   22  A    between atoms: _50  and  _51
REMARK   23  A    between atoms: _54  and  _56
REMARK   24  A    between atoms: _56  and  _57
REMARK   25  A    between atoms: _56  and  _59
REMARK   26  A    between atoms: _59  and  _60
REMARK   27  A    between atoms: _60  and  _61
REMARK   28  A    between atoms: _61  and  _62
REMARK   29  A    between atoms: _71  and  _73
REMARK   30  A    between atoms: _73  and  _74
REMARK   31  A    between atoms: _73  and  _76
REMARK   32  A    between atoms: _76  and  _77
REMARK   33  A    between atoms: _77  and  _78
REMARK   34  A    between atoms: _78  and  _79
REMARK   35  A    between atoms: _79  and  _80
REMARK   36  A    between atoms: _85  and  _86
REMARK   37  A    between atoms: _91  and  _93
REMARK   38  A    between atoms: _93  and  _94
REMARK   39  A    between atoms: _93  and  _96
REMARK   40  A    between atoms: _99  and  _101
REMARK   41  A    between atoms: _101  and  _102
REMARK   42  A    between atoms: _101  and  _104
REMARK   43  A    between atoms: _104  and  _105
REMARK   44  A    between atoms: _110  and  _112
REMARK   45  A    between atoms: _112  and  _113
REMARK   46  A    between atoms: _112  and  _115
REMARK   47  A    between atoms: _115  and  _116
REMARK   48  A    between atoms: _119  and  _121
REMARK   49  A    between atoms: _121  and  _122
REMARK   50  A    between atoms: _121  and  _124
REMARK   51  A    between atoms: _124  and  _125
REMARK   52  A    between atoms: _131  and  _133
REMARK   53  A    between atoms: _133  and  _134
REMARK   54  A    between atoms: _133  and  _136
REMARK   55  A    between atoms: _136  and  _137
REMARK   56  A    between atoms: _137  and  _185
REMARK   57  A    between atoms: _138  and  _140
REMARK   58  A    between atoms: _140  and  _141
REMARK   59  A    between atoms: _140  and  _143
REMARK   60  A    between atoms: _143  and  _144
REMARK   61  A    between atoms: _144  and  _145
REMARK   62  A    between atoms: _145  and  _146
REMARK   63  A    between atoms: _146  and  _147
REMARK   64  A    between atoms: _151  and  _153
REMARK   65  A    between atoms: _153  and  _154
REMARK   66  A    between atoms: _153  and  _156
REMARK   67  A    between atoms: _156  and  _157
REMARK   68  A    between atoms: _162  and  _164
REMARK   69  A    between atoms: _164  and  _165
REMARK   70  A    between atoms: _167  and  _169
REMARK   71  A    between atoms: _169  and  _170
REMARK   72  A    between atoms: _169  and  _172
REMARK   73  A    between atoms: _172  and  _173
REMARK   74  A    between atoms: _173  and  _174
REMARK   75  A    between atoms: _179  and  _181
REMARK   76  A    between atoms: _181  and  _182
REMARK   77  A    between atoms: _181  and  _184
REMARK   78  A    between atoms: _184  and  _185
REMARK   79  A    between atoms: _186  and  _188
REMARK   80  A    between atoms: _188  and  _189
REMARK   81  A    between atoms: _188  and  _191
REMARK   82  A    between atoms: _191  and  _192
REMARK   83  A    between atoms: _195  and  _197
REMARK   84  A    between atoms: _197  and  _198
REMARK   85  A    between atoms: _197  and  _200
REMARK   86  A    between atoms: _200  and  _201
REMARK   87  A    between atoms: _204  and  _206
REMARK   88  A    between atoms: _206  and  _207
REMARK   89  A    between atoms: _206  and  _209
REMARK   90  A    between atoms: _209  and  _210
REMARK   91  A    between atoms: _213  and  _215
REMARK   92  A    between atoms: _215  and  _216
REMARK   93  A    between atoms: _215  and  _218
REMARK   94  A    between atoms: _220  and  _222
REMARK   95  A    between atoms: _222  and  _223
REMARK   96  A    between atoms: _222  and  _225
REMARK   97  A    between atoms: _225  and  _226
REMARK   98  A    between atoms: _226  and  _227
REMARK   99  A    between atoms: _227  and  _228
REMARK  100  A    between atoms: _237  and  _239
REMARK  101  A    between atoms: _239  and  _240
REMARK  102  A    between atoms: _239  and  _242
REMARK  103  A    between atoms: _242  and  _243
REMARK  104  A    between atoms: _246  and  _248
REMARK  105  A    between atoms: _248  and  _249
REMARK  106  A    between atoms: _252  and  _254
REMARK  107  A    between atoms: _254  and  _255
REMARK  108  A    between atoms: _254  and  _257
REMARK  109  A    between atoms: _257  and  _258
REMARK  110  A    between atoms: _263  and  _265
REMARK  111  A    between atoms: _265  and  _266
REMARK  112  A    between atoms: _265  and  _268
REMARK  113  A    between atoms: _268  and  _269
REMARK  114  A    between atoms: _275  and  _277
REMARK  115  A    between atoms: _277  and  _278
REMARK  116  A    between atoms: _277  and  _280
REMARK  117  A    between atoms: _280  and  _281
REMARK  118  A    between atoms: _284  and  _286
REMARK  119  A    between atoms: _286  and  _287
REMARK  120  A    between atoms: _290  and  _292
REMARK  121  A    between atoms: _292  and  _293
REMARK  122  A    between atoms: _292  and  _295
REMARK  123  A    between atoms: _295  and  _296
REMARK                            x       y       z     vdW  Elec       q    Type
REMARK                         _______ _______ _______ _____ _____    ______ ____
ROOT
ATOM      1  O   HOH     1      41.601   3.984  25.202  0.00  0.00    +0.000 OA
ENDROOT
TORSDOF 0
REMARK  Name = ../refined-set-2016/2g8r/2g8r_pocket.pdb
REMARK  123 active torsions:
REMARK  status: ('A' for Active; 'I' for Inactive)
REMARK    1  A    between atoms: _1  and  _3
REMARK    2  A    between atoms: _3  and  _4
REMARK    3  A    between atoms: _3  and  _6
REMARK    4  A    between atoms: _6  and  _7
REMARK    5  A    between atoms: _13  and  _15
REMARK    6  A    between atoms: _15  and  _16
REMARK    7  A    between atoms: _15  and  _18
REMARK    8  A    between atoms: _18  and  _19
REMARK    9  A    between atoms: _19  and  _20
REMARK   10  A    between atoms: _25  and  _27
REMARK   11  A    between atoms: _27  and  _28
REMARK   12  A    between atoms: _27  and  _30
REMARK   13  A    between atoms: _30  and  _31
REMARK   14  A    between atoms: _36  and  _38
REMARK   15  A    between atoms: _38  and  _39
REMARK   16  A    between atoms: _38  and  _41
REMARK   17  A    between atoms: _41  and  _42
REMARK   18  A    between atoms: _42  and  _43
REMARK   19  A    between atoms: _45  and  _47
REMARK   20  A    between atoms: _47  and  _48
REMARK   21  A    between atoms: _47  and  _50
REMARK   22  A    between atoms: _50  and  _51
REMARK   23  A    between atoms: _54  and  _56
REMARK   24  A    between atoms: _56  and  _57
REMARK   25  A    between atoms: _56  and  _59
REMARK   26  A    between atoms: _59  and  _60
REMARK   27  A    between atoms: _60  and  _61
REMARK   28  A    between atoms: _61  and  _62
REMARK   29  A    between atoms: _71  and  _73
REMARK   30  A    between atoms: _73  and  _74
REMARK   31  A    between atoms: _73  and  _76
REMARK   32  A    between atoms: _76  and  _77
REMARK   33  A    between atoms: _77  and  _78
REMARK   34  A    between atoms: _78  and  _79
REMARK   35  A    between atoms: _79  and  _80
REMARK   36  A    between atoms: _85  and  _86
REMARK   37  A    between atoms: _91  and  _93
REMARK   38  A    between atoms: _93  and  _94
REMARK   39  A    between atoms: _93  and  _96
REMARK   40  A    between atoms: _99  and  _101
REMARK   41  A    between atoms: _101  and  _102
REMARK   42  A    between atoms: _101  and  _104
REMARK   43  A    between atoms: _104  and  _105
REMARK   44  A    between atoms: _110  and  _112
REMARK   45  A    between atoms: _112  and  _113
REMARK   46  A    between atoms: _112  and  _115
REMARK   47  A    between atoms: _115  and  _116
REMARK   48  A    between atoms: _119  and  _121
REMARK   49  A    between atoms: _121  and  _122
REMARK   50  A    between atoms: _121  and  _124
REMARK   51  A    between atoms: _124  and  _125
REMARK   52  A    between atoms: _131  and  _133
REMARK   53  A    between atoms: _133  and  _134
REMARK   54  A    between atoms: _133  and  _136
REMARK   55  A    between atoms: _136  and  _137
REMARK   56  A    between atoms: _137  and  _185
REMARK   57  A    between atoms: _138  and  _140
REMARK   58  A    between atoms: _140  and  _141
REMARK   59  A    between atoms: _140  and  _143
REMARK   60  A    between atoms: _143  and  _144
REMARK   61  A    between atoms: _144  and  _145
REMARK   62  A    between atoms: _145  and  _146
REMARK   63  A    between atoms: _146  and  _147
REMARK   64  A    between atoms: _151  and  _153
REMARK   65  A    between atoms: _153  and  _154
REMARK   66  A    between atoms: _153  and  _156
REMARK   67  A    between atoms: _156  and  _157
REMARK   68  A    between atoms: _162  and  _164
REMARK   69  A    between atoms: _164  and  _165
REMARK   70  A    between atoms: _167  and  _169
REMARK   71  A    between atoms: _169  and  _170
REMARK   72  A    between atoms: _169  and  _172
REMARK   73  A    between atoms: _172  and  _173
REMARK   74  A    between atoms: _173  and  _174
REMARK   75  A    between atoms: _179  and  _181
REMARK   76  A    between atoms: _181  and  _182
REMARK   77  A    between atoms: _181  and  _184
REMARK   78  A    between atoms: _184  and  _185
REMARK   79  A    between atoms: _186  and  _188
REMARK   80  A    between atoms: _188  and  _189
REMARK   81  A    between atoms: _188  and  _191
REMARK   82  A    between atoms: _191  and  _192
REMARK   83  A    between atoms: _195  and  _197
REMARK   84  A    between atoms: _197  and  _198
REMARK   85  A    between atoms: _197  and  _200
REMARK   86  A    between atoms: _200  and  _201
REMARK   87  A    between atoms: _204  and  _206
REMARK   88  A    between atoms: _206  and  _207
REMARK   89  A    between atoms: _206  and  _209
REMARK   90  A    between atoms: _209  and  _210
REMARK   91  A    between atoms: _213  and  _215
REMARK   92  A    between atoms: _215  and  _216
REMARK   93  A    between atoms: _215  and  _218
REMARK   94  A    between atoms: _220  and  _222
REMARK   95  A    between atoms: _222  and  _223
REMARK   96  A    between atoms: _222  and  _225
REMARK   97  A    between atoms: _225  and  _226
REMARK   98  A    between atoms: _226  and  _227
REMARK   99  A    between atoms: _227  and  _228
REMARK  100  A    between atoms: _237  and  _239
REMARK  101  A    between atoms: _239  and  _240
REMARK  102  A    between atoms: _239  and  _242
REMARK  103  A    between atoms: _242  and  _243
REMARK  104  A    between atoms: _246  and  _248
REMARK  105  A    between atoms: _248  and  _249
REMARK  106  A    between atoms: _252  and  _254
REMARK  107  A    between atoms: _254  and  _255
REMARK  108  A    between atoms: _254  and  _257
REMARK  109  A    between atoms: _257  and  _258
REMARK  110  A    between atoms: _263  and  _265
REMARK  111  A    between atoms: _265  and  _266
REMARK  112  A    between atoms: _265  and  _268
REMARK  113  A    between atoms: _268  and  _269
REMARK  114  A    between atoms: _275  and  _277
REMARK  115  A    between atoms: _277  and  _278
REMARK  116  A    between atoms: _277  and  _280
REMARK  117  A    between atoms: _280  and  _281
REMARK  118  A    between atoms: _284  and  _286
REMARK  119  A    between atoms: _286  and  _287
REMARK  120  A    between atoms: _290  and  _292
REMARK  121  A    between atoms: _292  and  _293
REMARK  122  A    between atoms: _292  and  _295
REMARK  123  A    between atoms: _295  and  _296
REMARK                            x       y       z     vdW  Elec       q    Type
REMARK                         _______ _______ _______ _____ _____    ______ ____
ROOT
ATOM      1  O   HOH     1      37.012  -0.220  22.303  0.00  0.00    +0.000 OA
ENDROOT
TORSDOF 0
REMARK  Name = ../refined-set-2016/2g8r/2g8r_pocket.pdb
REMARK  123 active torsions:
REMARK  status: ('A' for Active; 'I' for Inactive)
REMARK    1  A    between atoms: _1  and  _3
REMARK    2  A    between atoms: _3  and  _4
REMARK    3  A    between atoms: _3  and  _6
REMARK    4  A    between atoms: _6  and  _7
REMARK    5  A    between atoms: _13  and  _15
REMARK    6  A    between atoms: _15  and  _16
REMARK    7  A    between atoms: _15  and  _18
REMARK    8  A    between atoms: _18  and  _19
REMARK    9  A    between atoms: _19  and  _20
REMARK   10  A    between atoms: _25  and  _27
REMARK   11  A    between atoms: _27  and  _28
REMARK   12  A    between atoms: _27  and  _30
REMARK   13  A    between atoms: _30  and  _31
REMARK   14  A    between atoms: _36  and  _38
REMARK   15  A    between atoms: _38  and  _39
REMARK   16  A    between atoms: _38  and  _41
REMARK   17  A    between atoms: _41  and  _42
REMARK   18  A    between atoms: _42  and  _43
REMARK   19  A    between atoms: _45  and  _47
REMARK   20  A    between atoms: _47  and  _48
REMARK   21  A    between atoms: _47  and  _50
REMARK   22  A    between atoms: _50  and  _51
REMARK   23  A    between atoms: _54  and  _56
REMARK   24  A    between atoms: _56  and  _57
REMARK   25  A    between atoms: _56  and  _59
REMARK   26  A    between atoms: _59  and  _60
REMARK   27  A    between atoms: _60  and  _61
REMARK   28  A    between atoms: _61  and  _62
REMARK   29  A    between atoms: _71  and  _73
REMARK   30  A    between atoms: _73  and  _74
REMARK   31  A    between atoms: _73  and  _76
REMARK   32  A    between atoms: _76  and  _77
REMARK   33  A    between atoms: _77  and  _78
REMARK   34  A    between atoms: _78  and  _79
REMARK   35  A    between atoms: _79  and  _80
REMARK   36  A    between atoms: _85  and  _86
REMARK   37  A    between atoms: _91  and  _93
REMARK   38  A    between atoms: _93  and  _94
REMARK   39  A    between atoms: _93  and  _96
REMARK   40  A    between atoms: _99  and  _101
REMARK   41  A    between atoms: _101  and  _102
REMARK   42  A    between atoms: _101  and  _104
REMARK   43  A    between atoms: _104  and  _105
REMARK   44  A    between atoms: _110  and  _112
REMARK   45  A    between atoms: _112  and  _113
REMARK   46  A    between atoms: _112  and  _115
REMARK   47  A    between atoms: _115  and  _116
REMARK   48  A    between atoms: _119  and  _121
REMARK   49  A    between atoms: _121  and  _122
REMARK   50  A    between atoms: _121  and  _124
REMARK   51  A    between atoms: _124  and  _125
REMARK   52  A    between atoms: _131  and  _133
REMARK   53  A    between atoms: _133  and  _134
REMARK   54  A    between atoms: _133  and  _136
REMARK   55  A    between atoms: _136  and  _137
REMARK   56  A    between atoms: _137  and  _185
REMARK   57  A    between atoms: _138  and  _140
REMARK   58  A    between atoms: _140  and  _141
REMARK   59  A    between atoms: _140  and  _143
REMARK   60  A    between atoms: _143  and  _144
REMARK   61  A    between atoms: _144  and  _145
REMARK   62  A    between atoms: _145  and  _146
REMARK   63  A    between atoms: _146  and  _147
REMARK   64  A    between atoms: _151  and  _153
REMARK   65  A    between atoms: _153  and  _154
REMARK   66  A    between atoms: _153  and  _156
REMARK   67  A    between atoms: _156  and  _157
REMARK   68  A    between atoms: _162  and  _164
REMARK   69  A    between atoms: _164  and  _165
REMARK   70  A    between atoms: _167  and  _169
REMARK   71  A    between atoms: _169  and  _170
REMARK   72  A    between atoms: _169  and  _172
REMARK   73  A    between atoms: _172  and  _173
REMARK   74  A    between atoms: _173  and  _174
REMARK   75  A    between atoms: _179  and  _181
REMARK   76  A    between atoms: _181  and  _182
REMARK   77  A    between atoms: _181  and  _184
REMARK   78  A    between atoms: _184  and  _185
REMARK   79  A    between atoms: _186  and  _188
REMARK   80  A    between atoms: _188  and  _189
REMARK   81  A    between atoms: _188  and  _191
REMARK   82  A    between atoms: _191  and  _192
REMARK   83  A    between atoms: _195  and  _197
REMARK   84  A    between atoms: _197  and  _198
REMARK   85  A    between atoms: _197  and  _200
REMARK   86  A    between atoms: _200  and  _201
REMARK   87  A    between atoms: _204  and  _206
REMARK   88  A    between atoms: _206  and  _207
REMARK   89  A    between atoms: _206  and  _209
REMARK   90  A    between atoms: _209  and  _210
REMARK   91  A    between atoms: _213  and  _215
REMARK   92  A    between atoms: _215  and  _216
REMARK   93  A    between atoms: _215  and  _218
REMARK   94  A    between atoms: _220  and  _222
REMARK   95  A    between atoms: _222  and  _223
REMARK   96  A    between atoms: _222  and  _225
REMARK   97  A    between atoms: _225  and  _226
REMARK   98  A    between atoms: _226  and  _227
REMARK   99  A    between atoms: _227  and  _228
REMARK  100  A    between atoms: _237  and  _239
REMARK  101  A    between atoms: _239  and  _240
REMARK  102  A    between atoms: _239  and  _242
REMARK  103  A    between atoms: _242  and  _243
REMARK  104  A    between atoms: _246  and  _248
REMARK  105  A    between atoms: _248  and  _249
REMARK  106  A    between atoms: _252  and  _254
REMARK  107  A    between atoms: _254  and  _255
REMARK  108  A    between atoms: _254  and  _257
REMARK  109  A    between atoms: _257  and  _258
REMARK  110  A    between atoms: _263  and  _265
REMARK  111  A    between atoms: _265  and  _266
REMARK  112  A    between atoms: _265  and  _268
REMARK  113  A    between atoms: _268  and  _269
REMARK  114  A    between atoms: _275  and  _277
REMARK  115  A    between atoms: _277  and  _278
REMARK  116  A    between atoms: _277  and  _280
REMARK  117  A    between atoms: _280  and  _281
REMARK  118  A    between atoms: _284  and  _286
REMARK  119  A    between atoms: _286  and  _287
REMARK  120  A    between atoms: _290  and  _292
REMARK  121  A    between atoms: _292  and  _293
REMARK  122  A    between atoms: _292  and  _295
REMARK  123  A    between atoms: _295  and  _296
REMARK                            x       y       z     vdW  Elec       q    Type
REMARK                         _______ _______ _______ _____ _____    ______ ____
ROOT
ATOM      1  O   HOH     1      41.594  -0.190  25.555  0.00  0.00    +0.000 OA
ENDROOT
TORSDOF 0
REMARK  Name = ../refined-set-2016/2g8r/2g8r_pocket.pdb
REMARK  123 active torsions:
REMARK  status: ('A' for Active; 'I' for Inactive)
REMARK    1  A    between atoms: _1  and  _3
REMARK    2  A    between atoms: _3  and  _4
REMARK    3  A    between atoms: _3  and  _6
REMARK    4  A    between atoms: _6  and  _7
REMARK    5  A    between atoms: _13  and  _15
REMARK    6  A    between atoms: _15  and  _16
REMARK    7  A    between atoms: _15  and  _18
REMARK    8  A    between atoms: _18  and  _19
REMARK    9  A    between atoms: _19  and  _20
REMARK   10  A    between atoms: _25  and  _27
REMARK   11  A    between atoms: _27  and  _28
REMARK   12  A    between atoms: _27  and  _30
REMARK   13  A    between atoms: _30  and  _31
REMARK   14  A    between atoms: _36  and  _38
REMARK   15  A    between atoms: _38  and  _39
REMARK   16  A    between atoms: _38  and  _41
REMARK   17  A    between atoms: _41  and  _42
REMARK   18  A    between atoms: _42  and  _43
REMARK   19  A    between atoms: _45  and  _47
REMARK   20  A    between atoms: _47  and  _48
REMARK   21  A    between atoms: _47  and  _50
REMARK   22  A    between atoms: _50  and  _51
REMARK   23  A    between atoms: _54  and  _56
REMARK   24  A    between atoms: _56  and  _57
REMARK   25  A    between atoms: _56  and  _59
REMARK   26  A    between atoms: _59  and  _60
REMARK   27  A    between atoms: _60  and  _61
REMARK   28  A    between atoms: _61  and  _62
REMARK   29  A    between atoms: _71  and  _73
REMARK   30  A    between atoms: _73  and  _74
REMARK   31  A    between atoms: _73  and  _76
REMARK   32  A    between atoms: _76  and  _77
REMARK   33  A    between atoms: _77  and  _78
REMARK   34  A    between atoms: _78  and  _79
REMARK   35  A    between atoms: _79  and  _80
REMARK   36  A    between atoms: _85  and  _86
REMARK   37  A    between atoms: _91  and  _93
REMARK   38  A    between atoms: _93  and  _94
REMARK   39  A    between atoms: _93  and  _96
REMARK   40  A    between atoms: _99  and  _101
REMARK   41  A    between atoms: _101  and  _102
REMARK   42  A    between atoms: _101  and  _104
REMARK   43  A    between atoms: _104  and  _105
REMARK   44  A    between atoms: _110  and  _112
REMARK   45  A    between atoms: _112  and  _113
REMARK   46  A    between atoms: _112  and  _115
REMARK   47  A    between atoms: _115  and  _116
REMARK   48  A    between atoms: _119  and  _121
REMARK   49  A    between atoms: _121  and  _122
REMARK   50  A    between atoms: _121  and  _124
REMARK   51  A    between atoms: _124  and  _125
REMARK   52  A    between atoms: _131  and  _133
REMARK   53  A    between atoms: _133  and  _134
REMARK   54  A    between atoms: _133  and  _136
REMARK   55  A    between atoms: _136  and  _137
REMARK   56  A    between atoms: _137  and  _185
REMARK   57  A    between atoms: _138  and  _140
REMARK   58  A    between atoms: _140  and  _141
REMARK   59  A    between atoms: _140  and  _143
REMARK   60  A    between atoms: _143  and  _144
REMARK   61  A    between atoms: _144  and  _145
REMARK   62  A    between atoms: _145  and  _146
REMARK   63  A    between atoms: _146  and  _147
REMARK   64  A    between atoms: _151  and  _153
REMARK   65  A    between atoms: _153  and  _154
REMARK   66  A    between atoms: _153  and  _156
REMARK   67  A    between atoms: _156  and  _157
REMARK   68  A    between atoms: _162  and  _164
REMARK   69  A    between atoms: _164  and  _165
REMARK   70  A    between atoms: _167  and  _169
REMARK   71  A    between atoms: _169  and  _170
REMARK   72  A    between atoms: _169  and  _172
REMARK   73  A    between atoms: _172  and  _173
REMARK   74  A    between atoms: _173  and  _174
REMARK   75  A    between atoms: _179  and  _181
REMARK   76  A    between atoms: _181  and  _182
REMARK   77  A    between atoms: _181  and  _184
REMARK   78  A    between atoms: _184  and  _185
REMARK   79  A    between atoms: _186  and  _188
REMARK   80  A    between atoms: _188  and  _189
REMARK   81  A    between atoms: _188  and  _191
REMARK   82  A    between atoms: _191  and  _192
REMARK   83  A    between atoms: _195  and  _197
REMARK   84  A    between atoms: _197  and  _198
REMARK   85  A    between atoms: _197  and  _200
REMARK   86  A    between atoms: _200  and  _201
REMARK   87  A    between atoms: _204  and  _206
REMARK   88  A    between atoms: _206  and  _207
REMARK   89  A    between atoms: _206  and  _209
REMARK   90  A    between atoms: _209  and  _210
REMARK   91  A    between atoms: _213  and  _215
REMARK   92  A    between atoms: _215  and  _216
REMARK   93  A    between atoms: _215  and  _218
REMARK   94  A    between atoms: _220  and  _222
REMARK   95  A    between atoms: _222  and  _223
REMARK   96  A    between atoms: _222  and  _225
REMARK   97  A    between atoms: _225  and  _226
REMARK   98  A    between atoms: _226  and  _227
REMARK   99  A    between atoms: _227  and  _228
REMARK  100  A    between atoms: _237  and  _239
REMARK  101  A    between atoms: _239  and  _240
REMARK  102  A    between atoms: _239  and  _242
REMARK  103  A    between atoms: _242  and  _243
REMARK  104  A    between atoms: _246  and  _248
REMARK  105  A    between atoms: _248  and  _249
REMARK  106  A    between atoms: _252  and  _254
REMARK  107  A    between atoms: _254  and  _255
REMARK  108  A    between atoms: _254  and  _257
REMARK  109  A    between atoms: _257  and  _258
REMARK  110  A    between atoms: _263  and  _265
REMARK  111  A    between atoms: _265  and  _266
REMARK  112  A    between atoms: _265  and  _268
REMARK  113  A    between atoms: _268  and  _269
REMARK  114  A    between atoms: _275  and  _277
REMARK  115  A    between atoms: _277  and  _278
REMARK  116  A    between atoms: _277  and  _280
REMARK  117  A    between atoms: _280  and  _281
REMARK  118  A    between atoms: _284  and  _286
REMARK  119  A    between atoms: _286  and  _287
REMARK  120  A    between atoms: _290  and  _292
REMARK  121  A    between atoms: _292  and  _293
REMARK  122  A    between atoms: _292  and  _295
REMARK  123  A    between atoms: _295  and  _296
REMARK                            x       y       z     vdW  Elec       q    Type
REMARK                         _______ _______ _______ _____ _____    ______ ____
ROOT
ATOM      1  O   HOH     1      40.507   7.170  15.792  0.00  0.00    +0.000 OA
ENDROOT
TORSDOF 0
REMARK  Name = ../refined-set-2016/2g8r/2g8r_pocket.pdb
REMARK  123 active torsions:
REMARK  status: ('A' for Active; 'I' for Inactive)
REMARK    1  A    between atoms: _1  and  _3
REMARK    2  A    between atoms: _3  and  _4
REMARK    3  A    between atoms: _3  and  _6
REMARK    4  A    between atoms: _6  and  _7
REMARK    5  A    between atoms: _13  and  _15
REMARK    6  A    between atoms: _15  and  _16
REMARK    7  A    between atoms: _15  and  _18
REMARK    8  A    between atoms: _18  and  _19
REMARK    9  A    between atoms: _19  and  _20
REMARK   10  A    between atoms: _25  and  _27
REMARK   11  A    between atoms: _27  and  _28
REMARK   12  A    between atoms: _27  and  _30
REMARK   13  A    between atoms: _30  and  _31
REMARK   14  A    between atoms: _36  and  _38
REMARK   15  A    between atoms: _38  and  _39
REMARK   16  A    between atoms: _38  and  _41
REMARK   17  A    between atoms: _41  and  _42
REMARK   18  A    between atoms: _42  and  _43
REMARK   19  A    between atoms: _45  and  _47
REMARK   20  A    between atoms: _47  and  _48
REMARK   21  A    between atoms: _47  and  _50
REMARK   22  A    between atoms: _50  and  _51
REMARK   23  A    between atoms: _54  and  _56
REMARK   24  A    between atoms: _56  and  _57
REMARK   25  A    between atoms: _56  and  _59
REMARK   26  A    between atoms: _59  and  _60
REMARK   27  A    between atoms: _60  and  _61
REMARK   28  A    between atoms: _61  and  _62
REMARK   29  A    between atoms: _71  and  _73
REMARK   30  A    between atoms: _73  and  _74
REMARK   31  A    between atoms: _73  and  _76
REMARK   32  A    between atoms: _76  and  _77
REMARK   33  A    between atoms: _77  and  _78
REMARK   34  A    between atoms: _78  and  _79
REMARK   35  A    between atoms: _79  and  _80
REMARK   36  A    between atoms: _85  and  _86
REMARK   37  A    between atoms: _91  and  _93
REMARK   38  A    between atoms: _93  and  _94
REMARK   39  A    between atoms: _93  and  _96
REMARK   40  A    between atoms: _99  and  _101
REMARK   41  A    between atoms: _101  and  _102
REMARK   42  A    between atoms: _101  and  _104
REMARK   43  A    between atoms: _104  and  _105
REMARK   44  A    between atoms: _110  and  _112
REMARK   45  A    between atoms: _112  and  _113
REMARK   46  A    between atoms: _112  and  _115
REMARK   47  A    between atoms: _115  and  _116
REMARK   48  A    between atoms: _119  and  _121
REMARK   49  A    between atoms: _121  and  _122
REMARK   50  A    between atoms: _121  and  _124
REMARK   51  A    between atoms: _124  and  _125
REMARK   52  A    between atoms: _131  and  _133
REMARK   53  A    between atoms: _133  and  _134
REMARK   54  A    between atoms: _133  and  _136
REMARK   55  A    between atoms: _136  and  _137
REMARK   56  A    between atoms: _137  and  _185
REMARK   57  A    between atoms: _138  and  _140
REMARK   58  A    between atoms: _140  and  _141
REMARK   59  A    between atoms: _140  and  _143
REMARK   60  A    between atoms: _143  and  _144
REMARK   61  A    between atoms: _144  and  _145
REMARK   62  A    between atoms: _145  and  _146
REMARK   63  A    between atoms: _146  and  _147
REMARK   64  A    between atoms: _151  and  _153
REMARK   65  A    between atoms: _153  and  _154
REMARK   66  A    between atoms: _153  and  _156
REMARK   67  A    between atoms: _156  and  _157
REMARK   68  A    between atoms: _162  and  _164
REMARK   69  A    between atoms: _164  and  _165
REMARK   70  A    between atoms: _167  and  _169
REMARK   71  A    between atoms: _169  and  _170
REMARK   72  A    between atoms: _169  and  _172
REMARK   73  A    between atoms: _172  and  _173
REMARK   74  A    between atoms: _173  and  _174
REMARK   75  A    between atoms: _179  and  _181
REMARK   76  A    between atoms: _181  and  _182
REMARK   77  A    between atoms: _181  and  _184
REMARK   78  A    between atoms: _184  and  _185
REMARK   79  A    between atoms: _186  and  _188
REMARK   80  A    between atoms: _188  and  _189
REMARK   81  A    between atoms: _188  and  _191
REMARK   82  A    between atoms: _191  and  _192
REMARK   83  A    between atoms: _195  and  _197
REMARK   84  A    between atoms: _197  and  _198
REMARK   85  A    between atoms: _197  and  _200
REMARK   86  A    between atoms: _200  and  _201
REMARK   87  A    between atoms: _204  and  _206
REMARK   88  A    between atoms: _206  and  _207
REMARK   89  A    between atoms: _206  and  _209
REMARK   90  A    between atoms: _209  and  _210
REMARK   91  A    between atoms: _213  and  _215
REMARK   92  A    between atoms: _215  and  _216
REMARK   93  A    between atoms: _215  and  _218
REMARK   94  A    between atoms: _220  and  _222
REMARK   95  A    between atoms: _222  and  _223
REMARK   96  A    between atoms: _222  and  _225
REMARK   97  A    between atoms: _225  and  _226
REMARK   98  A    between atoms: _226  and  _227
REMARK   99  A    between atoms: _227  and  _228
REMARK  100  A    between atoms: _237  and  _239
REMARK  101  A    between atoms: _239  and  _240
REMARK  102  A    between atoms: _239  and  _242
REMARK  103  A    between atoms: _242  and  _243
REMARK  104  A    between atoms: _246  and  _248
REMARK  105  A    between atoms: _248  and  _249
REMARK  106  A    between atoms: _252  and  _254
REMARK  107  A    between atoms: _254  and  _255
REMARK  108  A    between atoms: _254  and  _257
REMARK  109  A    between atoms: _257  and  _258
REMARK  110  A    between atoms: _263  and  _265
REMARK  111  A    between atoms: _265  and  _266
REMARK  112  A    between atoms: _265  and  _268
REMARK  113  A    between atoms: _268  and  _269
REMARK  114  A    between atoms: _275  and  _277
REMARK  115  A    between atoms: _277  and  _278
REMARK  116  A    between atoms: _277  and  _280
REMARK  117  A    between atoms: _280  and  _281
REMARK  118  A    between atoms: _284  and  _286
REMARK  119  A    between atoms: _286  and  _287
REMARK  120  A    between atoms: _290  and  _292
REMARK  121  A    between atoms: _292  and  _293
REMARK  122  A    between atoms: _292  and  _295
REMARK  123  A    between atoms: _295  and  _296
REMARK                            x       y       z     vdW  Elec       q    Type
REMARK                         _______ _______ _______ _____ _____    ______ ____
ROOT
ATOM      1  O   HOH     1      33.558  10.134  23.494  0.00  0.00    +0.000 OA
ENDROOT
TORSDOF 0
REMARK  Name = ../refined-set-2016/2g8r/2g8r_pocket.pdb
REMARK  123 active torsions:
REMARK  status: ('A' for Active; 'I' for Inactive)
REMARK    1  A    between atoms: _1  and  _3
REMARK    2  A    between atoms: _3  and  _4
REMARK    3  A    between atoms: _3  and  _6
REMARK    4  A    between atoms: _6  and  _7
REMARK    5  A    between atoms: _13  and  _15
REMARK    6  A    between atoms: _15  and  _16
REMARK    7  A    between atoms: _15  and  _18
REMARK    8  A    between atoms: _18  and  _19
REMARK    9  A    between atoms: _19  and  _20
REMARK   10  A    between atoms: _25  and  _27
REMARK   11  A    between atoms: _27  and  _28
REMARK   12  A    between atoms: _27  and  _30
REMARK   13  A    between atoms: _30  and  _31
REMARK   14  A    between atoms: _36  and  _38
REMARK   15  A    between atoms: _38  and  _39
REMARK   16  A    between atoms: _38  and  _41
REMARK   17  A    between atoms: _41  and  _42
REMARK   18  A    between atoms: _42  and  _43
REMARK   19  A    between atoms: _45  and  _47
REMARK   20  A    between atoms: _47  and  _48
REMARK   21  A    between atoms: _47  and  _50
REMARK   22  A    between atoms: _50  and  _51
REMARK   23  A    between atoms: _54  and  _56
REMARK   24  A    between atoms: _56  and  _57
REMARK   25  A    between atoms: _56  and  _59
REMARK   26  A    between atoms: _59  and  _60
REMARK   27  A    between atoms: _60  and  _61
REMARK   28  A    between atoms: _61  and  _62
REMARK   29  A    between atoms: _71  and  _73
REMARK   30  A    between atoms: _73  and  _74
REMARK   31  A    between atoms: _73  and  _76
REMARK   32  A    between atoms: _76  and  _77
REMARK   33  A    between atoms: _77  and  _78
REMARK   34  A    between atoms: _78  and  _79
REMARK   35  A    between atoms: _79  and  _80
REMARK   36  A    between atoms: _85  and  _86
REMARK   37  A    between atoms: _91  and  _93
REMARK   38  A    between atoms: _93  and  _94
REMARK   39  A    between atoms: _93  and  _96
REMARK   40  A    between atoms: _99  and  _101
REMARK   41  A    between atoms: _101  and  _102
REMARK   42  A    between atoms: _101  and  _104
REMARK   43  A    between atoms: _104  and  _105
REMARK   44  A    between atoms: _110  and  _112
REMARK   45  A    between atoms: _112  and  _113
REMARK   46  A    between atoms: _112  and  _115
REMARK   47  A    between atoms: _115  and  _116
REMARK   48  A    between atoms: _119  and  _121
REMARK   49  A    between atoms: _121  and  _122
REMARK   50  A    between atoms: _121  and  _124
REMARK   51  A    between atoms: _124  and  _125
REMARK   52  A    between atoms: _131  and  _133
REMARK   53  A    between atoms: _133  and  _134
REMARK   54  A    between atoms: _133  and  _136
REMARK   55  A    between atoms: _136  and  _137
REMARK   56  A    between atoms: _137  and  _185
REMARK   57  A    between atoms: _138  and  _140
REMARK   58  A    between atoms: _140  and  _141
REMARK   59  A    between atoms: _140  and  _143
REMARK   60  A    between atoms: _143  and  _144
REMARK   61  A    between atoms: _144  and  _145
REMARK   62  A    between atoms: _145  and  _146
REMARK   63  A    between atoms: _146  and  _147
REMARK   64  A    between atoms: _151  and  _153
REMARK   65  A    between atoms: _153  and  _154
REMARK   66  A    between atoms: _153  and  _156
REMARK   67  A    between atoms: _156  and  _157
REMARK   68  A    between atoms: _162  and  _164
REMARK   69  A    between atoms: _164  and  _165
REMARK   70  A    between atoms: _167  and  _169
REMARK   71  A    between atoms: _169  and  _170
REMARK   72  A    between atoms: _169  and  _172
REMARK   73  A    between atoms: _172  and  _173
REMARK   74  A    between atoms: _173  and  _174
REMARK   75  A    between atoms: _179  and  _181
REMARK   76  A    between atoms: _181  and  _182
REMARK   77  A    between atoms: _181  and  _184
REMARK   78  A    between atoms: _184  and  _185
REMARK   79  A    between atoms: _186  and  _188
REMARK   80  A    between atoms: _188  and  _189
REMARK   81  A    between atoms: _188  and  _191
REMARK   82  A    between atoms: _191  and  _192
REMARK   83  A    between atoms: _195  and  _197
REMARK   84  A    between atoms: _197  and  _198
REMARK   85  A    between atoms: _197  and  _200
REMARK   86  A    between atoms: _200  and  _201
REMARK   87  A    between atoms: _204  and  _206
REMARK   88  A    between atoms: _206  and  _207
REMARK   89  A    between atoms: _206  and  _209
REMARK   90  A    between atoms: _209  and  _210
REMARK   91  A    between atoms: _213  and  _215
REMARK   92  A    between atoms: _215  and  _216
REMARK   93  A    between atoms: _215  and  _218
REMARK   94  A    between atoms: _220  and  _222
REMARK   95  A    between atoms: _222  and  _223
REMARK   96  A    between atoms: _222  and  _225
REMARK   97  A    between atoms: _225  and  _226
REMARK   98  A    between atoms: _226  and  _227
REMARK   99  A    between atoms: _227  and  _228
REMARK  100  A    between atoms: _237  and  _239
REMARK  101  A    between atoms: _239  and  _240
REMARK  102  A    between atoms: _239  and  _242
REMARK  103  A    between atoms: _242  and  _243
REMARK  104  A    between atoms: _246  and  _248
REMARK  105  A    between atoms: _248  and  _249
REMARK  106  A    between atoms: _252  and  _254
REMARK  107  A    between atoms: _254  and  _255
REMARK  108  A    between atoms: _254  and  _257
REMARK  109  A    between atoms: _257  and  _258
REMARK  110  A    between atoms: _263  and  _265
REMARK  111  A    between atoms: _265  and  _266
REMARK  112  A    between atoms: _265  and  _268
REMARK  113  A    between atoms: _268  and  _269
REMARK  114  A    between atoms: _275  and  _277
REMARK  115  A    between atoms: _277  and  _278
REMARK  116  A    between atoms: _277  and  _280
REMARK  117  A    between atoms: _280  and  _281
REMARK  118  A    between atoms: _284  and  _286
REMARK  119  A    between atoms: _286  and  _287
REMARK  120  A    between atoms: _290  and  _292
REMARK  121  A    between atoms: _292  and  _293
REMARK  122  A    between atoms: _292  and  _295
REMARK  123  A    between atoms: _295  and  _296
REMARK                            x       y       z     vdW  Elec       q    Type
REMARK                         _______ _______ _______ _____ _____    ______ ____
ROOT
ATOM      1  O   HOH     1      43.355  -2.143  12.228  0.00  0.00    +0.000 OA
ENDROOT
TORSDOF 0
REMARK  Name = ../refined-set-2016/2g8r/2g8r_pocket.pdb
REMARK  123 active torsions:
REMARK  status: ('A' for Active; 'I' for Inactive)
REMARK    1  A    between atoms: _1  and  _3
REMARK    2  A    between atoms: _3  and  _4
REMARK    3  A    between atoms: _3  and  _6
REMARK    4  A    between atoms: _6  and  _7
REMARK    5  A    between atoms: _13  and  _15
REMARK    6  A    between atoms: _15  and  _16
REMARK    7  A    between atoms: _15  and  _18
REMARK    8  A    between atoms: _18  and  _19
REMARK    9  A    between atoms: _19  and  _20
REMARK   10  A    between atoms: _25  and  _27
REMARK   11  A    between atoms: _27  and  _28
REMARK   12  A    between atoms: _27  and  _30
REMARK   13  A    between atoms: _30  and  _31
REMARK   14  A    between atoms: _36  and  _38
REMARK   15  A    between atoms: _38  and  _39
REMARK   16  A    between atoms: _38  and  _41
REMARK   17  A    between atoms: _41  and  _42
REMARK   18  A    between atoms: _42  and  _43
REMARK   19  A    between atoms: _45  and  _47
REMARK   20  A    between atoms: _47  and  _48
REMARK   21  A    between atoms: _47  and  _50
REMARK   22  A    between atoms: _50  and  _51
REMARK   23  A    between atoms: _54  and  _56
REMARK   24  A    between atoms: _56  and  _57
REMARK   25  A    between atoms: _56  and  _59
REMARK   26  A    between atoms: _59  and  _60
REMARK   27  A    between atoms: _60  and  _61
REMARK   28  A    between atoms: _61  and  _62
REMARK   29  A    between atoms: _71  and  _73
REMARK   30  A    between atoms: _73  and  _74
REMARK   31  A    between atoms: _73  and  _76
REMARK   32  A    between atoms: _76  and  _77
REMARK   33  A    between atoms: _77  and  _78
REMARK   34  A    between atoms: _78  and  _79
REMARK   35  A    between atoms: _79  and  _80
REMARK   36  A    between atoms: _85  and  _86
REMARK   37  A    between atoms: _91  and  _93
REMARK   38  A    between atoms: _93  and  _94
REMARK   39  A    between atoms: _93  and  _96
REMARK   40  A    between atoms: _99  and  _101
REMARK   41  A    between atoms: _101  and  _102
REMARK   42  A    between atoms: _101  and  _104
REMARK   43  A    between atoms: _104  and  _105
REMARK   44  A    between atoms: _110  and  _112
REMARK   45  A    between atoms: _112  and  _113
REMARK   46  A    between atoms: _112  and  _115
REMARK   47  A    between atoms: _115  and  _116
REMARK   48  A    between atoms: _119  and  _121
REMARK   49  A    between atoms: _121  and  _122
REMARK   50  A    between atoms: _121  and  _124
REMARK   51  A    between atoms: _124  and  _125
REMARK   52  A    between atoms: _131  and  _133
REMARK   53  A    between atoms: _133  and  _134
REMARK   54  A    between atoms: _133  and  _136
REMARK   55  A    between atoms: _136  and  _137
REMARK   56  A    between atoms: _137  and  _185
REMARK   57  A    between atoms: _138  and  _140
REMARK   58  A    between atoms: _140  and  _141
REMARK   59  A    between atoms: _140  and  _143
REMARK   60  A    between atoms: _143  and  _144
REMARK   61  A    between atoms: _144  and  _145
REMARK   62  A    between atoms: _145  and  _146
REMARK   63  A    between atoms: _146  and  _147
REMARK   64  A    between atoms: _151  and  _153
REMARK   65  A    between atoms: _153  and  _154
REMARK   66  A    between atoms: _153  and  _156
REMARK   67  A    between atoms: _156  and  _157
REMARK   68  A    between atoms: _162  and  _164
REMARK   69  A    between atoms: _164  and  _165
REMARK   70  A    between atoms: _167  and  _169
REMARK   71  A    between atoms: _169  and  _170
REMARK   72  A    between atoms: _169  and  _172
REMARK   73  A    between atoms: _172  and  _173
REMARK   74  A    between atoms: _173  and  _174
REMARK   75  A    between atoms: _179  and  _181
REMARK   76  A    between atoms: _181  and  _182
REMARK   77  A    between atoms: _181  and  _184
REMARK   78  A    between atoms: _184  and  _185
REMARK   79  A    between atoms: _186  and  _188
REMARK   80  A    between atoms: _188  and  _189
REMARK   81  A    between atoms: _188  and  _191
REMARK   82  A    between atoms: _191  and  _192
REMARK   83  A    between atoms: _195  and  _197
REMARK   84  A    between atoms: _197  and  _198
REMARK   85  A    between atoms: _197  and  _200
REMARK   86  A    between atoms: _200  and  _201
REMARK   87  A    between atoms: _204  and  _206
REMARK   88  A    between atoms: _206  and  _207
REMARK   89  A    between atoms: _206  and  _209
REMARK   90  A    between atoms: _209  and  _210
REMARK   91  A    between atoms: _213  and  _215
REMARK   92  A    between atoms: _215  and  _216
REMARK   93  A    between atoms: _215  and  _218
REMARK   94  A    between atoms: _220  and  _222
REMARK   95  A    between atoms: _222  and  _223
REMARK   96  A    between atoms: _222  and  _225
REMARK   97  A    between atoms: _225  and  _226
REMARK   98  A    between atoms: _226  and  _227
REMARK   99  A    between atoms: _227  and  _228
REMARK  100  A    between atoms: _237  and  _239
REMARK  101  A    between atoms: _239  and  _240
REMARK  102  A    between atoms: _239  and  _242
REMARK  103  A    between atoms: _242  and  _243
REMARK  104  A    between atoms: _246  and  _248
REMARK  105  A    between atoms: _248  and  _249
REMARK  106  A    between atoms: _252  and  _254
REMARK  107  A    between atoms: _254  and  _255
REMARK  108  A    between atoms: _254  and  _257
REMARK  109  A    between atoms: _257  and  _258
REMARK  110  A    between atoms: _263  and  _265
REMARK  111  A    between atoms: _265  and  _266
REMARK  112  A    between atoms: _265  and  _268
REMARK  113  A    between atoms: _268  and  _269
REMARK  114  A    between atoms: _275  and  _277
REMARK  115  A    between atoms: _277  and  _278
REMARK  116  A    between atoms: _277  and  _280
REMARK  117  A    between atoms: _280  and  _281
REMARK  118  A    between atoms: _284  and  _286
REMARK  119  A    between atoms: _286  and  _287
REMARK  120  A    between atoms: _290  and  _292
REMARK  121  A    between atoms: _292  and  _293
REMARK  122  A    between atoms: _292  and  _295
REMARK  123  A    between atoms: _295  and  _296
REMARK                            x       y       z     vdW  Elec       q    Type
REMARK                         _______ _______ _______ _____ _____    ______ ____
ROOT
ATOM      1  O   HOH     1      39.499  -1.143  21.129  0.00  0.00    +0.000 OA
ENDROOT
TORSDOF 0
REMARK  Name = ../refined-set-2016/2g8r/2g8r_pocket.pdb
REMARK  123 active torsions:
REMARK  status: ('A' for Active; 'I' for Inactive)
REMARK    1  A    between atoms: _1  and  _3
REMARK    2  A    between atoms: _3  and  _4
REMARK    3  A    between atoms: _3  and  _6
REMARK    4  A    between atoms: _6  and  _7
REMARK    5  A    between atoms: _13  and  _15
REMARK    6  A    between atoms: _15  and  _16
REMARK    7  A    between atoms: _15  and  _18
REMARK    8  A    between atoms: _18  and  _19
REMARK    9  A    between atoms: _19  and  _20
REMARK   10  A    between atoms: _25  and  _27
REMARK   11  A    between atoms: _27  and  _28
REMARK   12  A    between atoms: _27  and  _30
REMARK   13  A    between atoms: _30  and  _31
REMARK   14  A    between atoms: _36  and  _38
REMARK   15  A    between atoms: _38  and  _39
REMARK   16  A    between atoms: _38  and  _41
REMARK   17  A    between atoms: _41  and  _42
REMARK   18  A    between atoms: _42  and  _43
REMARK   19  A    between atoms: _45  and  _47
REMARK   20  A    between atoms: _47  and  _48
REMARK   21  A    between atoms: _47  and  _50
REMARK   22  A    between atoms: _50  and  _51
REMARK   23  A    between atoms: _54  and  _56
REMARK   24  A    between atoms: _56  and  _57
REMARK   25  A    between atoms: _56  and  _59
REMARK   26  A    between atoms: _59  and  _60
REMARK   27  A    between atoms: _60  and  _61
REMARK   28  A    between atoms: _61  and  _62
REMARK   29  A    between atoms: _71  and  _73
REMARK   30  A    between atoms: _73  and  _74
REMARK   31  A    between atoms: _73  and  _76
REMARK   32  A    between atoms: _76  and  _77
REMARK   33  A    between atoms: _77  and  _78
REMARK   34  A    between atoms: _78  and  _79
REMARK   35  A    between atoms: _79  and  _80
REMARK   36  A    between atoms: _85  and  _86
REMARK   37  A    between atoms: _91  and  _93
REMARK   38  A    between atoms: _93  and  _94
REMARK   39  A    between atoms: _93  and  _96
REMARK   40  A    between atoms: _99  and  _101
REMARK   41  A    between atoms: _101  and  _102
REMARK   42  A    between atoms: _101  and  _104
REMARK   43  A    between atoms: _104  and  _105
REMARK   44  A    between atoms: _110  and  _112
REMARK   45  A    between atoms: _112  and  _113
REMARK   46  A    between atoms: _112  and  _115
REMARK   47  A    between atoms: _115  and  _116
REMARK   48  A    between atoms: _119  and  _121
REMARK   49  A    between atoms: _121  and  _122
REMARK   50  A    between atoms: _121  and  _124
REMARK   51  A    between atoms: _124  and  _125
REMARK   52  A    between atoms: _131  and  _133
REMARK   53  A    between atoms: _133  and  _134
REMARK   54  A    between atoms: _133  and  _136
REMARK   55  A    between atoms: _136  and  _137
REMARK   56  A    between atoms: _137  and  _185
REMARK   57  A    between atoms: _138  and  _140
REMARK   58  A    between atoms: _140  and  _141
REMARK   59  A    between atoms: _140  and  _143
REMARK   60  A    between atoms: _143  and  _144
REMARK   61  A    between atoms: _144  and  _145
REMARK   62  A    between atoms: _145  and  _146
REMARK   63  A    between atoms: _146  and  _147
REMARK   64  A    between atoms: _151  and  _153
REMARK   65  A    between atoms: _153  and  _154
REMARK   66  A    between atoms: _153  and  _156
REMARK   67  A    between atoms: _156  and  _157
REMARK   68  A    between atoms: _162  and  _164
REMARK   69  A    between atoms: _164  and  _165
REMARK   70  A    between atoms: _167  and  _169
REMARK   71  A    between atoms: _169  and  _170
REMARK   72  A    between atoms: _169  and  _172
REMARK   73  A    between atoms: _172  and  _173
REMARK   74  A    between atoms: _173  and  _174
REMARK   75  A    between atoms: _179  and  _181
REMARK   76  A    between atoms: _181  and  _182
REMARK   77  A    between atoms: _181  and  _184
REMARK   78  A    between atoms: _184  and  _185
REMARK   79  A    between atoms: _186  and  _188
REMARK   80  A    between atoms: _188  and  _189
REMARK   81  A    between atoms: _188  and  _191
REMARK   82  A    between atoms: _191  and  _192
REMARK   83  A    between atoms: _195  and  _197
REMARK   84  A    between atoms: _197  and  _198
REMARK   85  A    between atoms: _197  and  _200
REMARK   86  A    between atoms: _200  and  _201
REMARK   87  A    between atoms: _204  and  _206
REMARK   88  A    between atoms: _206  and  _207
REMARK   89  A    between atoms: _206  and  _209
REMARK   90  A    between atoms: _209  and  _210
REMARK   91  A    between atoms: _213  and  _215
REMARK   92  A    between atoms: _215  and  _216
REMARK   93  A    between atoms: _215  and  _218
REMARK   94  A    between atoms: _220  and  _222
REMARK   95  A    between atoms: _222  and  _223
REMARK   96  A    between atoms: _222  and  _225
REMARK   97  A    between atoms: _225  and  _226
REMARK   98  A    between atoms: _226  and  _227
REMARK   99  A    between atoms: _227  and  _228
REMARK  100  A    between atoms: _237  and  _239
REMARK  101  A    between atoms: _239  and  _240
REMARK  102  A    between atoms: _239  and  _242
REMARK  103  A    between atoms: _242  and  _243
REMARK  104  A    between atoms: _246  and  _248
REMARK  105  A    between atoms: _248  and  _249
REMARK  106  A    between atoms: _252  and  _254
REMARK  107  A    between atoms: _254  and  _255
REMARK  108  A    between atoms: _254  and  _257
REMARK  109  A    between atoms: _257  and  _258
REMARK  110  A    between atoms: _263  and  _265
REMARK  111  A    between atoms: _265  and  _266
REMARK  112  A    between atoms: _265  and  _268
REMARK  113  A    between atoms: _268  and  _269
REMARK  114  A    between atoms: _275  and  _277
REMARK  115  A    between atoms: _277  and  _278
REMARK  116  A    between atoms: _277  and  _280
REMARK  117  A    between atoms: _280  and  _281
REMARK  118  A    between atoms: _284  and  _286
REMARK  119  A    between atoms: _286  and  _287
REMARK  120  A    between atoms: _290  and  _292
REMARK  121  A    between atoms: _292  and  _293
REMARK  122  A    between atoms: _292  and  _295
REMARK  123  A    between atoms: _295  and  _296
REMARK                            x       y       z     vdW  Elec       q    Type
REMARK                         _______ _______ _______ _____ _____    ______ ____
ROOT
ATOM      1  O   HOH     1      36.482  -1.102  24.748  0.00  0.00    +0.000 OA
ENDROOT
TORSDOF 0
REMARK  Name = ../refined-set-2016/2g8r/2g8r_pocket.pdb
REMARK  123 active torsions:
REMARK  status: ('A' for Active; 'I' for Inactive)
REMARK    1  A    between atoms: _1  and  _3
REMARK    2  A    between atoms: _3  and  _4
REMARK    3  A    between atoms: _3  and  _6
REMARK    4  A    between atoms: _6  and  _7
REMARK    5  A    between atoms: _13  and  _15
REMARK    6  A    between atoms: _15  and  _16
REMARK    7  A    between atoms: _15  and  _18
REMARK    8  A    between atoms: _18  and  _19
REMARK    9  A    between atoms: _19  and  _20
REMARK   10  A    between atoms: _25  and  _27
REMARK   11  A    between atoms: _27  and  _28
REMARK   12  A    between atoms: _27  and  _30
REMARK   13  A    between atoms: _30  and  _31
REMARK   14  A    between atoms: _36  and  _38
REMARK   15  A    between atoms: _38  and  _39
REMARK   16  A    between atoms: _38  and  _41
REMARK   17  A    between atoms: _41  and  _42
REMARK   18  A    between atoms: _42  and  _43
REMARK   19  A    between atoms: _45  and  _47
REMARK   20  A    between atoms: _47  and  _48
REMARK   21  A    between atoms: _47  and  _50
REMARK   22  A    between atoms: _50  and  _51
REMARK   23  A    between atoms: _54  and  _56
REMARK   24  A    between atoms: _56  and  _57
REMARK   25  A    between atoms: _56  and  _59
REMARK   26  A    between atoms: _59  and  _60
REMARK   27  A    between atoms: _60  and  _61
REMARK   28  A    between atoms: _61  and  _62
REMARK   29  A    between atoms: _71  and  _73
REMARK   30  A    between atoms: _73  and  _74
REMARK   31  A    between atoms: _73  and  _76
REMARK   32  A    between atoms: _76  and  _77
REMARK   33  A    between atoms: _77  and  _78
REMARK   34  A    between atoms: _78  and  _79
REMARK   35  A    between atoms: _79  and  _80
REMARK   36  A    between atoms: _85  and  _86
REMARK   37  A    between atoms: _91  and  _93
REMARK   38  A    between atoms: _93  and  _94
REMARK   39  A    between atoms: _93  and  _96
REMARK   40  A    between atoms: _99  and  _101
REMARK   41  A    between atoms: _101  and  _102
REMARK   42  A    between atoms: _101  and  _104
REMARK   43  A    between atoms: _104  and  _105
REMARK   44  A    between atoms: _110  and  _112
REMARK   45  A    between atoms: _112  and  _113
REMARK   46  A    between atoms: _112  and  _115
REMARK   47  A    between atoms: _115  and  _116
REMARK   48  A    between atoms: _119  and  _121
REMARK   49  A    between atoms: _121  and  _122
REMARK   50  A    between atoms: _121  and  _124
REMARK   51  A    between atoms: _124  and  _125
REMARK   52  A    between atoms: _131  and  _133
REMARK   53  A    between atoms: _133  and  _134
REMARK   54  A    between atoms: _133  and  _136
REMARK   55  A    between atoms: _136  and  _137
REMARK   56  A    between atoms: _137  and  _185
REMARK   57  A    between atoms: _138  and  _140
REMARK   58  A    between atoms: _140  and  _141
REMARK   59  A    between atoms: _140  and  _143
REMARK   60  A    between atoms: _143  and  _144
REMARK   61  A    between atoms: _144  and  _145
REMARK   62  A    between atoms: _145  and  _146
REMARK   63  A    between atoms: _146  and  _147
REMARK   64  A    between atoms: _151  and  _153
REMARK   65  A    between atoms: _153  and  _154
REMARK   66  A    between atoms: _153  and  _156
REMARK   67  A    between atoms: _156  and  _157
REMARK   68  A    between atoms: _162  and  _164
REMARK   69  A    between atoms: _164  and  _165
REMARK   70  A    between atoms: _167  and  _169
REMARK   71  A    between atoms: _169  and  _170
REMARK   72  A    between atoms: _169  and  _172
REMARK   73  A    between atoms: _172  and  _173
REMARK   74  A    between atoms: _173  and  _174
REMARK   75  A    between atoms: _179  and  _181
REMARK   76  A    between atoms: _181  and  _182
REMARK   77  A    between atoms: _181  and  _184
REMARK   78  A    between atoms: _184  and  _185
REMARK   79  A    between atoms: _186  and  _188
REMARK   80  A    between atoms: _188  and  _189
REMARK   81  A    between atoms: _188  and  _191
REMARK   82  A    between atoms: _191  and  _192
REMARK   83  A    between atoms: _195  and  _197
REMARK   84  A    between atoms: _197  and  _198
REMARK   85  A    between atoms: _197  and  _200
REMARK   86  A    between atoms: _200  and  _201
REMARK   87  A    between atoms: _204  and  _206
REMARK   88  A    between atoms: _206  and  _207
REMARK   89  A    between atoms: _206  and  _209
REMARK   90  A    between atoms: _209  and  _210
REMARK   91  A    between atoms: _213  and  _215
REMARK   92  A    between atoms: _215  and  _216
REMARK   93  A    between atoms: _215  and  _218
REMARK   94  A    between atoms: _220  and  _222
REMARK   95  A    between atoms: _222  and  _223
REMARK   96  A    between atoms: _222  and  _225
REMARK   97  A    between atoms: _225  and  _226
REMARK   98  A    between atoms: _226  and  _227
REMARK   99  A    between atoms: _227  and  _228
REMARK  100  A    between atoms: _237  and  _239
REMARK  101  A    between atoms: _239  and  _240
REMARK  102  A    between atoms: _239  and  _242
REMARK  103  A    between atoms: _242  and  _243
REMARK  104  A    between atoms: _246  and  _248
REMARK  105  A    between atoms: _248  and  _249
REMARK  106  A    between atoms: _252  and  _254
REMARK  107  A    between atoms: _254  and  _255
REMARK  108  A    between atoms: _254  and  _257
REMARK  109  A    between atoms: _257  and  _258
REMARK  110  A    between atoms: _263  and  _265
REMARK  111  A    between atoms: _265  and  _266
REMARK  112  A    between atoms: _265  and  _268
REMARK  113  A    between atoms: _268  and  _269
REMARK  114  A    between atoms: _275  and  _277
REMARK  115  A    between atoms: _277  and  _278
REMARK  116  A    between atoms: _277  and  _280
REMARK  117  A    between atoms: _280  and  _281
REMARK  118  A    between atoms: _284  and  _286
REMARK  119  A    between atoms: _286  and  _287
REMARK  120  A    between atoms: _290  and  _292
REMARK  121  A    between atoms: _292  and  _293
REMARK  122  A    between atoms: _292  and  _295
REMARK  123  A    between atoms: _295  and  _296
REMARK                            x       y       z     vdW  Elec       q    Type
REMARK                         _______ _______ _______ _____ _____    ______ ____
ROOT
ATOM      1  O   HOH     1      32.267   7.161  26.540  0.00  0.00    +0.000 OA
ENDROOT
TORSDOF 0
REMARK  Name = ../refined-set-2016/2g8r/2g8r_pocket.pdb
REMARK  123 active torsions:
REMARK  status: ('A' for Active; 'I' for Inactive)
REMARK    1  A    between atoms: _1  and  _3
REMARK    2  A    between atoms: _3  and  _4
REMARK    3  A    between atoms: _3  and  _6
REMARK    4  A    between atoms: _6  and  _7
REMARK    5  A    between atoms: _13  and  _15
REMARK    6  A    between atoms: _15  and  _16
REMARK    7  A    between atoms: _15  and  _18
REMARK    8  A    between atoms: _18  and  _19
REMARK    9  A    between atoms: _19  and  _20
REMARK   10  A    between atoms: _25  and  _27
REMARK   11  A    between atoms: _27  and  _28
REMARK   12  A    between atoms: _27  and  _30
REMARK   13  A    between atoms: _30  and  _31
REMARK   14  A    between atoms: _36  and  _38
REMARK   15  A    between atoms: _38  and  _39
REMARK   16  A    between atoms: _38  and  _41
REMARK   17  A    between atoms: _41  and  _42
REMARK   18  A    between atoms: _42  and  _43
REMARK   19  A    between atoms: _45  and  _47
REMARK   20  A    between atoms: _47  and  _48
REMARK   21  A    between atoms: _47  and  _50
REMARK   22  A    between atoms: _50  and  _51
REMARK   23  A    between atoms: _54  and  _56
REMARK   24  A    between atoms: _56  and  _57
REMARK   25  A    between atoms: _56  and  _59
REMARK   26  A    between atoms: _59  and  _60
REMARK   27  A    between atoms: _60  and  _61
REMARK   28  A    between atoms: _61  and  _62
REMARK   29  A    between atoms: _71  and  _73
REMARK   30  A    between atoms: _73  and  _74
REMARK   31  A    between atoms: _73  and  _76
REMARK   32  A    between atoms: _76  and  _77
REMARK   33  A    between atoms: _77  and  _78
REMARK   34  A    between atoms: _78  and  _79
REMARK   35  A    between atoms: _79  and  _80
REMARK   36  A    between atoms: _85  and  _86
REMARK   37  A    between atoms: _91  and  _93
REMARK   38  A    between atoms: _93  and  _94
REMARK   39  A    between atoms: _93  and  _96
REMARK   40  A    between atoms: _99  and  _101
REMARK   41  A    between atoms: _101  and  _102
REMARK   42  A    between atoms: _101  and  _104
REMARK   43  A    between atoms: _104  and  _105
REMARK   44  A    between atoms: _110  and  _112
REMARK   45  A    between atoms: _112  and  _113
REMARK   46  A    between atoms: _112  and  _115
REMARK   47  A    between atoms: _115  and  _116
REMARK   48  A    between atoms: _119  and  _121
REMARK   49  A    between atoms: _121  and  _122
REMARK   50  A    between atoms: _121  and  _124
REMARK   51  A    between atoms: _124  and  _125
REMARK   52  A    between atoms: _131  and  _133
REMARK   53  A    between atoms: _133  and  _134
REMARK   54  A    between atoms: _133  and  _136
REMARK   55  A    between atoms: _136  and  _137
REMARK   56  A    between atoms: _137  and  _185
REMARK   57  A    between atoms: _138  and  _140
REMARK   58  A    between atoms: _140  and  _141
REMARK   59  A    between atoms: _140  and  _143
REMARK   60  A    between atoms: _143  and  _144
REMARK   61  A    between atoms: _144  and  _145
REMARK   62  A    between atoms: _145  and  _146
REMARK   63  A    between atoms: _146  and  _147
REMARK   64  A    between atoms: _151  and  _153
REMARK   65  A    between atoms: _153  and  _154
REMARK   66  A    between atoms: _153  and  _156
REMARK   67  A    between atoms: _156  and  _157
REMARK   68  A    between atoms: _162  and  _164
REMARK   69  A    between atoms: _164  and  _165
REMARK   70  A    between atoms: _167  and  _169
REMARK   71  A    between atoms: _169  and  _170
REMARK   72  A    between atoms: _169  and  _172
REMARK   73  A    between atoms: _172  and  _173
REMARK   74  A    between atoms: _173  and  _174
REMARK   75  A    between atoms: _179  and  _181
REMARK   76  A    between atoms: _181  and  _182
REMARK   77  A    between atoms: _181  and  _184
REMARK   78  A    between atoms: _184  and  _185
REMARK   79  A    between atoms: _186  and  _188
REMARK   80  A    between atoms: _188  and  _189
REMARK   81  A    between atoms: _188  and  _191
REMARK   82  A    between atoms: _191  and  _192
REMARK   83  A    between atoms: _195  and  _197
REMARK   84  A    between atoms: _197  and  _198
REMARK   85  A    between atoms: _197  and  _200
REMARK   86  A    between atoms: _200  and  _201
REMARK   87  A    between atoms: _204  and  _206
REMARK   88  A    between atoms: _206  and  _207
REMARK   89  A    between atoms: _206  and  _209
REMARK   90  A    between atoms: _209  and  _210
REMARK   91  A    between atoms: _213  and  _215
REMARK   92  A    between atoms: _215  and  _216
REMARK   93  A    between atoms: _215  and  _218
REMARK   94  A    between atoms: _220  and  _222
REMARK   95  A    between atoms: _222  and  _223
REMARK   96  A    between atoms: _222  and  _225
REMARK   97  A    between atoms: _225  and  _226
REMARK   98  A    between atoms: _226  and  _227
REMARK   99  A    between atoms: _227  and  _228
REMARK  100  A    between atoms: _237  and  _239
REMARK  101  A    between atoms: _239  and  _240
REMARK  102  A    between atoms: _239  and  _242
REMARK  103  A    between atoms: _242  and  _243
REMARK  104  A    between atoms: _246  and  _248
REMARK  105  A    between atoms: _248  and  _249
REMARK  106  A    between atoms: _252  and  _254
REMARK  107  A    between atoms: _254  and  _255
REMARK  108  A    between atoms: _254  and  _257
REMARK  109  A    between atoms: _257  and  _258
REMARK  110  A    between atoms: _263  and  _265
REMARK  111  A    between atoms: _265  and  _266
REMARK  112  A    between atoms: _265  and  _268
REMARK  113  A    between atoms: _268  and  _269
REMARK  114  A    between atoms: _275  and  _277
REMARK  115  A    between atoms: _277  and  _278
REMARK  116  A    between atoms: _277  and  _280
REMARK  117  A    between atoms: _280  and  _281
REMARK  118  A    between atoms: _284  and  _286
REMARK  119  A    between atoms: _286  and  _287
REMARK  120  A    between atoms: _290  and  _292
REMARK  121  A    between atoms: _292  and  _293
REMARK  122  A    between atoms: _292  and  _295
REMARK  123  A    between atoms: _295  and  _296
REMARK                            x       y       z     vdW  Elec       q    Type
REMARK                         _______ _______ _______ _____ _____    ______ ____
ROOT
ATOM      1  O   HOH     1      38.347   7.253  23.707  0.00  0.00    +0.000 OA
ENDROOT
TORSDOF 0
REMARK  Name = ../refined-set-2016/2g8r/2g8r_pocket.pdb
REMARK  123 active torsions:
REMARK  status: ('A' for Active; 'I' for Inactive)
REMARK    1  A    between atoms: _1  and  _3
REMARK    2  A    between atoms: _3  and  _4
REMARK    3  A    between atoms: _3  and  _6
REMARK    4  A    between atoms: _6  and  _7
REMARK    5  A    between atoms: _13  and  _15
REMARK    6  A    between atoms: _15  and  _16
REMARK    7  A    between atoms: _15  and  _18
REMARK    8  A    between atoms: _18  and  _19
REMARK    9  A    between atoms: _19  and  _20
REMARK   10  A    between atoms: _25  and  _27
REMARK   11  A    between atoms: _27  and  _28
REMARK   12  A    between atoms: _27  and  _30
REMARK   13  A    between atoms: _30  and  _31
REMARK   14  A    between atoms: _36  and  _38
REMARK   15  A    between atoms: _38  and  _39
REMARK   16  A    between atoms: _38  and  _41
REMARK   17  A    between atoms: _41  and  _42
REMARK   18  A    between atoms: _42  and  _43
REMARK   19  A    between atoms: _45  and  _47
REMARK   20  A    between atoms: _47  and  _48
REMARK   21  A    between atoms: _47  and  _50
REMARK   22  A    between atoms: _50  and  _51
REMARK   23  A    between atoms: _54  and  _56
REMARK   24  A    between atoms: _56  and  _57
REMARK   25  A    between atoms: _56  and  _59
REMARK   26  A    between atoms: _59  and  _60
REMARK   27  A    between atoms: _60  and  _61
REMARK   28  A    between atoms: _61  and  _62
REMARK   29  A    between atoms: _71  and  _73
REMARK   30  A    between atoms: _73  and  _74
REMARK   31  A    between atoms: _73  and  _76
REMARK   32  A    between atoms: _76  and  _77
REMARK   33  A    between atoms: _77  and  _78
REMARK   34  A    between atoms: _78  and  _79
REMARK   35  A    between atoms: _79  and  _80
REMARK   36  A    between atoms: _85  and  _86
REMARK   37  A    between atoms: _91  and  _93
REMARK   38  A    between atoms: _93  and  _94
REMARK   39  A    between atoms: _93  and  _96
REMARK   40  A    between atoms: _99  and  _101
REMARK   41  A    between atoms: _101  and  _102
REMARK   42  A    between atoms: _101  and  _104
REMARK   43  A    between atoms: _104  and  _105
REMARK   44  A    between atoms: _110  and  _112
REMARK   45  A    between atoms: _112  and  _113
REMARK   46  A    between atoms: _112  and  _115
REMARK   47  A    between atoms: _115  and  _116
REMARK   48  A    between atoms: _119  and  _121
REMARK   49  A    between atoms: _121  and  _122
REMARK   50  A    between atoms: _121  and  _124
REMARK   51  A    between atoms: _124  and  _125
REMARK   52  A    between atoms: _131  and  _133
REMARK   53  A    between atoms: _133  and  _134
REMARK   54  A    between atoms: _133  and  _136
REMARK   55  A    between atoms: _136  and  _137
REMARK   56  A    between atoms: _137  and  _185
REMARK   57  A    between atoms: _138  and  _140
REMARK   58  A    between atoms: _140  and  _141
REMARK   59  A    between atoms: _140  and  _143
REMARK   60  A    between atoms: _143  and  _144
REMARK   61  A    between atoms: _144  and  _145
REMARK   62  A    between atoms: _145  and  _146
REMARK   63  A    between atoms: _146  and  _147
REMARK   64  A    between atoms: _151  and  _153
REMARK   65  A    between atoms: _153  and  _154
REMARK   66  A    between atoms: _153  and  _156
REMARK   67  A    between atoms: _156  and  _157
REMARK   68  A    between atoms: _162  and  _164
REMARK   69  A    between atoms: _164  and  _165
REMARK   70  A    between atoms: _167  and  _169
REMARK   71  A    between atoms: _169  and  _170
REMARK   72  A    between atoms: _169  and  _172
REMARK   73  A    between atoms: _172  and  _173
REMARK   74  A    between atoms: _173  and  _174
REMARK   75  A    between atoms: _179  and  _181
REMARK   76  A    between atoms: _181  and  _182
REMARK   77  A    between atoms: _181  and  _184
REMARK   78  A    between atoms: _184  and  _185
REMARK   79  A    between atoms: _186  and  _188
REMARK   80  A    between atoms: _188  and  _189
REMARK   81  A    between atoms: _188  and  _191
REMARK   82  A    between atoms: _191  and  _192
REMARK   83  A    between atoms: _195  and  _197
REMARK   84  A    between atoms: _197  and  _198
REMARK   85  A    between atoms: _197  and  _200
REMARK   86  A    between atoms: _200  and  _201
REMARK   87  A    between atoms: _204  and  _206
REMARK   88  A    between atoms: _206  and  _207
REMARK   89  A    between atoms: _206  and  _209
REMARK   90  A    between atoms: _209  and  _210
REMARK   91  A    between atoms: _213  and  _215
REMARK   92  A    between atoms: _215  and  _216
REMARK   93  A    between atoms: _215  and  _218
REMARK   94  A    between atoms: _220  and  _222
REMARK   95  A    between atoms: _222  and  _223
REMARK   96  A    between atoms: _222  and  _225
REMARK   97  A    between atoms: _225  and  _226
REMARK   98  A    between atoms: _226  and  _227
REMARK   99  A    between atoms: _227  and  _228
REMARK  100  A    between atoms: _237  and  _239
REMARK  101  A    between atoms: _239  and  _240
REMARK  102  A    between atoms: _239  and  _242
REMARK  103  A    between atoms: _242  and  _243
REMARK  104  A    between atoms: _246  and  _248
REMARK  105  A    between atoms: _248  and  _249
REMARK  106  A    between atoms: _252  and  _254
REMARK  107  A    between atoms: _254  and  _255
REMARK  108  A    between atoms: _254  and  _257
REMARK  109  A    between atoms: _257  and  _258
REMARK  110  A    between atoms: _263  and  _265
REMARK  111  A    between atoms: _265  and  _266
REMARK  112  A    between atoms: _265  and  _268
REMARK  113  A    between atoms: _268  and  _269
REMARK  114  A    between atoms: _275  and  _277
REMARK  115  A    between atoms: _277  and  _278
REMARK  116  A    between atoms: _277  and  _280
REMARK  117  A    between atoms: _280  and  _281
REMARK  118  A    between atoms: _284  and  _286
REMARK  119  A    between atoms: _286  and  _287
REMARK  120  A    between atoms: _290  and  _292
REMARK  121  A    between atoms: _292  and  _293
REMARK  122  A    between atoms: _292  and  _295
REMARK  123  A    between atoms: _295  and  _296
REMARK                            x       y       z     vdW  Elec       q    Type
REMARK                         _______ _______ _______ _____ _____    ______ ____
ROOT
ATOM      1  O   HOH     1      35.728  -2.998  12.369  0.00  0.00    +0.000 OA
ENDROOT
TORSDOF 0
