REMARK  Name = ../refined-set-2016/2r75/2r75_pocket.pdb
REMARK  217 active torsions:
REMARK  status: ('A' for Active; 'I' for Inactive)
REMARK    1  A    between atoms: _1  and  _3
REMARK    2  A    between atoms: _3  and  _4
REMARK    3  A    between atoms: _3  and  _6
REMARK    4  A    between atoms: _9  and  _11
REMARK    5  A    between atoms: _11  and  _12
REMARK    6  A    between atoms: _14  and  _16
REMARK    7  A    between atoms: _16  and  _17
REMARK    8  A    between atoms: _19  and  _21
REMARK    9  A    between atoms: _21  and  _22
REMARK   10  A    between atoms: _24  and  _26
REMARK   11  A    between atoms: _26  and  _27
REMARK   12  A    between atoms: _29  and  _31
REMARK   13  A    between atoms: _31  and  _32
REMARK   14  A    between atoms: _31  and  _34
REMARK   15  A    between atoms: _34  and  _35
REMARK   16  A    between atoms: _37  and  _39
REMARK   17  A    between atoms: _39  and  _40
REMARK   18  A    between atoms: _39  and  _42
REMARK   19  A    between atoms: _42  and  _43
REMARK   20  A    between atoms: _48  and  _50
REMARK   21  A    between atoms: _50  and  _51
REMARK   22  A    between atoms: _54  and  _56
REMARK   23  A    between atoms: _56  and  _57
REMARK   24  A    between atoms: _56  and  _59
REMARK   25  A    between atoms: _62  and  _64
REMARK   26  A    between atoms: _64  and  _65
REMARK   27  A    between atoms: _64  and  _67
REMARK   28  A    between atoms: _67  and  _68
REMARK   29  A    between atoms: _73  and  _75
REMARK   30  A    between atoms: _75  and  _76
REMARK   31  A    between atoms: _75  and  _78
REMARK   32  A    between atoms: _78  and  _79
REMARK   33  A    between atoms: _79  and  _80
REMARK   34  A    between atoms: _80  and  _81
REMARK   35  A    between atoms: _90  and  _92
REMARK   36  A    between atoms: _92  and  _93
REMARK   37  A    between atoms: _92  and  _95
REMARK   38  A    between atoms: _95  and  _96
REMARK   39  A    between atoms: _99  and  _101
REMARK   40  A    between atoms: _101  and  _102
REMARK   41  A    between atoms: _101  and  _104
REMARK   42  A    between atoms: _104  and  _105
REMARK   43  A    between atoms: _110  and  _112
REMARK   44  A    between atoms: _112  and  _113
REMARK   45  A    between atoms: _112  and  _115
REMARK   46  A    between atoms: _115  and  _116
REMARK   47  A    between atoms: _119  and  _121
REMARK   48  A    between atoms: _121  and  _122
REMARK   49  A    between atoms: _121  and  _124
REMARK   50  A    between atoms: _124  and  _125
REMARK   51  A    between atoms: _128  and  _130
REMARK   52  A    between atoms: _130  and  _131
REMARK   53  A    between atoms: _130  and  _133
REMARK   54  A    between atoms: _133  and  _134
REMARK   55  A    between atoms: _139  and  _141
REMARK   56  A    between atoms: _141  and  _142
REMARK   57  A    between atoms: _141  and  _144
REMARK   58  A    between atoms: _144  and  _145
REMARK   59  A    between atoms: _148  and  _150
REMARK   60  A    between atoms: _150  and  _151
REMARK   61  A    between atoms: _150  and  _153
REMARK   62  A    between atoms: _153  and  _154
REMARK   63  A    between atoms: _157  and  _159
REMARK   64  A    between atoms: _159  and  _160
REMARK   65  A    between atoms: _162  and  _164
REMARK   66  A    between atoms: _164  and  _165
REMARK   67  A    between atoms: _168  and  _170
REMARK   68  A    between atoms: _170  and  _171
REMARK   69  A    between atoms: _173  and  _175
REMARK   70  A    between atoms: _175  and  _176
REMARK   71  A    between atoms: _179  and  _181
REMARK   72  A    between atoms: _181  and  _182
REMARK   73  A    between atoms: _181  and  _184
REMARK   74  A    between atoms: _184  and  _185
REMARK   75  A    between atoms: _185  and  _186
REMARK   76  A    between atoms: _186  and  _187
REMARK   77  A    between atoms: _187  and  _188
REMARK   78  A    between atoms: _193  and  _194
REMARK   79  A    between atoms: _199  and  _201
REMARK   80  A    between atoms: _201  and  _202
REMARK   81  A    between atoms: _201  and  _204
REMARK   82  A    between atoms: _207  and  _209
REMARK   83  A    between atoms: _209  and  _210
REMARK   84  A    between atoms: _212  and  _214
REMARK   85  A    between atoms: _214  and  _215
REMARK   86  A    between atoms: _214  and  _217
REMARK   87  A    between atoms: _217  and  _218
REMARK   88  A    between atoms: _220  and  _222
REMARK   89  A    between atoms: _222  and  _223
REMARK   90  A    between atoms: _226  and  _228
REMARK   91  A    between atoms: _228  and  _229
REMARK   92  A    between atoms: _231  and  _233
REMARK   93  A    between atoms: _233  and  _234
REMARK   94  A    between atoms: _233  and  _236
REMARK   95  A    between atoms: _236  and  _237
REMARK   96  A    between atoms: _240  and  _242
REMARK   97  A    between atoms: _242  and  _243
REMARK   98  A    between atoms: _245  and  _247
REMARK   99  A    between atoms: _247  and  _248
REMARK  100  A    between atoms: _250  and  _252
REMARK  101  A    between atoms: _252  and  _253
REMARK  102  A    between atoms: _255  and  _257
REMARK  103  A    between atoms: _257  and  _258
REMARK  104  A    between atoms: _257  and  _260
REMARK  105  A    between atoms: _260  and  _261
REMARK  106  A    between atoms: _264  and  _266
REMARK  107  A    between atoms: _266  and  _267
REMARK  108  A    between atoms: _269  and  _271
REMARK  109  A    between atoms: _271  and  _272
REMARK  110  A    between atoms: _271  and  _274
REMARK  111  A    between atoms: _274  and  _275
REMARK  112  A    between atoms: _278  and  _280
REMARK  113  A    between atoms: _280  and  _281
REMARK  114  A    between atoms: _283  and  _285
REMARK  115  A    between atoms: _285  and  _286
REMARK  116  A    between atoms: _289  and  _291
REMARK  117  A    between atoms: _291  and  _292
REMARK  118  A    between atoms: _295  and  _297
REMARK  119  A    between atoms: _297  and  _298
REMARK  120  A    between atoms: _297  and  _300
REMARK  121  A    between atoms: _300  and  _301
REMARK  122  A    between atoms: _304  and  _306
REMARK  123  A    between atoms: _306  and  _307
REMARK  124  A    between atoms: _306  and  _309
REMARK  125  A    between atoms: _309  and  _310
REMARK  126  A    between atoms: _314  and  _315
REMARK  127  A    between atoms: _320  and  _322
REMARK  128  A    between atoms: _322  and  _323
REMARK  129  A    between atoms: _322  and  _325
REMARK  130  A    between atoms: _325  and  _326
REMARK  131  A    between atoms: _332  and  _334
REMARK  132  A    between atoms: _334  and  _335
REMARK  133  A    between atoms: _334  and  _337
REMARK  134  A    between atoms: _337  and  _338
REMARK  135  A    between atoms: _344  and  _346
REMARK  136  A    between atoms: _346  and  _347
REMARK  137  A    between atoms: _346  and  _349
REMARK  138  A    between atoms: _349  and  _350
REMARK  139  A    between atoms: _350  and  _351
REMARK  140  A    between atoms: _354  and  _356
REMARK  141  A    between atoms: _356  and  _357
REMARK  142  A    between atoms: _356  and  _359
REMARK  143  A    between atoms: _359  and  _360
REMARK  144  A    between atoms: _360  and  _361
REMARK  145  A    between atoms: _361  and  _362
REMARK  146  A    between atoms: _362  and  _363
REMARK  147  A    between atoms: _367  and  _369
REMARK  148  A    between atoms: _369  and  _370
REMARK  149  A    between atoms: _369  and  _372
REMARK  150  A    between atoms: _372  and  _373
REMARK  151  A    between atoms: _373  and  _374
REMARK  152  A    between atoms: _376  and  _378
REMARK  153  A    between atoms: _378  and  _379
REMARK  154  A    between atoms: _378  and  _381
REMARK  155  A    between atoms: _381  and  _382
REMARK  156  A    between atoms: _382  and  _383
REMARK  157  A    between atoms: _383  and  _384
REMARK  158  A    between atoms: _384  and  _385
REMARK  159  A    between atoms: _389  and  _391
REMARK  160  A    between atoms: _391  and  _392
REMARK  161  A    between atoms: _395  and  _397
REMARK  162  A    between atoms: _397  and  _398
REMARK  163  A    between atoms: _397  and  _400
REMARK  164  A    between atoms: _400  and  _401
REMARK  165  A    between atoms: _406  and  _408
REMARK  166  A    between atoms: _408  and  _409
REMARK  167  A    between atoms: _408  and  _411
REMARK  168  A    between atoms: _411  and  _412
REMARK  169  A    between atoms: _415  and  _417
REMARK  170  A    between atoms: _417  and  _418
REMARK  171  A    between atoms: _417  and  _420
REMARK  172  A    between atoms: _420  and  _421
REMARK  173  A    between atoms: _424  and  _426
REMARK  174  A    between atoms: _426  and  _427
REMARK  175  A    between atoms: _426  and  _429
REMARK  176  A    between atoms: _429  and  _430
REMARK  177  A    between atoms: _430  and  _431
REMARK  178  A    between atoms: _431  and  _432
REMARK  179  A    between atoms: _432  and  _433
REMARK  180  A    between atoms: _437  and  _439
REMARK  181  A    between atoms: _439  and  _440
REMARK  182  A    between atoms: _443  and  _445
REMARK  183  A    between atoms: _445  and  _446
REMARK  184  A    between atoms: _445  and  _448
REMARK  185  A    between atoms: _448  and  _449
REMARK  186  A    between atoms: _455  and  _457
REMARK  187  A    between atoms: _457  and  _458
REMARK  188  A    between atoms: _457  and  _460
REMARK  189  A    between atoms: _461  and  _462
REMARK  190  A    between atoms: _462  and  _463
REMARK  191  A    between atoms: _463  and  _464
REMARK  192  A    between atoms: _468  and  _470
REMARK  193  A    between atoms: _470  and  _471
REMARK  194  A    between atoms: _470  and  _473
REMARK  195  A    between atoms: _474  and  _475
REMARK  196  A    between atoms: _478  and  _480
REMARK  197  A    between atoms: _480  and  _481
REMARK  198  A    between atoms: _480  and  _483
REMARK  199  A    between atoms: _486  and  _488
REMARK  200  A    between atoms: _488  and  _489
REMARK  201  A    between atoms: _488  and  _491
REMARK  202  A    between atoms: _491  and  _492
REMARK  203  A    between atoms: _495  and  _497
REMARK  204  A    between atoms: _497  and  _498
REMARK  205  A    between atoms: _497  and  _500
REMARK  206  A    between atoms: _500  and  _501
REMARK  207  A    between atoms: _503  and  _505
REMARK  208  A    between atoms: _505  and  _506
REMARK  209  A    between atoms: _505  and  _508
REMARK  210  A    between atoms: _511  and  _513
REMARK  211  A    between atoms: _513  and  _514
REMARK  212  A    between atoms: _513  and  _516
REMARK  213  A    between atoms: _516  and  _517
REMARK  214  A    between atoms: _520  and  _522
REMARK  215  A    between atoms: _522  and  _523
REMARK  216  A    between atoms: _522  and  _525
REMARK  217  A    between atoms: _525  and  _526
REMARK                            x       y       z     vdW  Elec       q    Type
REMARK                         _______ _______ _______ _____ _____    ______ ____
ROOT
ATOM      1  CA  ASN A   7      -1.011   2.214  15.117  0.00  0.00    +0.158 C 
ENDROOT
BRANCH   1   2
ATOM      2  C   ASN A   7       0.277   1.654  15.728  0.00  0.00    +0.241 C 
ATOM      3  O   ASN A   7       0.841   2.266  16.656  0.00  0.00    -0.273 OA
ATOM      4  N   ALA A   8       0.733   0.486  15.264  0.00  0.00    -0.297 N 
ATOM      5  H   ALA A   8       0.204  -0.039  14.538  0.00  0.00    +0.150 HD
BRANCH   4   6
ATOM      6  CA  ALA A   8       1.996  -0.042  15.799  0.00  0.00    +0.149 C 
ATOM      7  CB  ALA A   8       2.198  -1.500  15.290  0.00  0.00    +0.031 C 
BRANCH   6   8
ATOM      8  C   ALA A   8       3.165   0.839  15.436  0.00  0.00    +0.241 C 
ATOM      9  O   ALA A   8       4.080   1.046  16.251  0.00  0.00    -0.273 OA
ATOM     10  N   VAL A   9       3.184   1.352  14.212  0.00  0.00    -0.297 N 
ATOM     11  H   VAL A   9       2.412   1.132  13.550  0.00  0.00    +0.150 HD
BRANCH  10  12
ATOM     12  CA  VAL A   9       4.279   2.224  13.783  0.00  0.00    +0.149 C 
BRANCH  12  13
ATOM     13  C   VAL A   9       4.221   3.565  14.526  0.00  0.00    +0.241 C 
ATOM     14  O   VAL A   9       5.239   4.097  14.918  0.00  0.00    -0.273 OA
ATOM     15  N   ASN A  10       3.015   4.043  14.797  0.00  0.00    -0.297 N 
ATOM     16  H   ASN A  10       2.176   3.557  14.421  0.00  0.00    +0.150 HD
BRANCH  15  17
ATOM     17  CA  ASN A  10       2.842   5.249  15.620  0.00  0.00    +0.158 C 
BRANCH  17  18
ATOM     18  C   ASN A  10       3.441   5.023  17.008  0.00  0.00    +0.241 C 
ATOM     19  O   ASN A  10       4.099   5.900  17.593  0.00  0.00    -0.273 OA
ATOM     20  N   ARG A  11       3.277   3.840  17.552  0.00  0.00    -0.298 N 
ATOM     21  H   ARG A  11       2.743   3.106  17.045  0.00  0.00    +0.150 HD
BRANCH  20  22
ATOM     22  CA  ARG A  11       3.852   3.547  18.889  0.00  0.00    +0.137 C 
BRANCH  22  23
ATOM     23  C   ARG A  11       5.362   3.509  18.804  0.00  0.00    +0.227 C 
ATOM     24  O   ARG A  11       6.071   3.955  19.733  0.00  0.00    -0.286 OA
ENDBRANCH  22  23
BRANCH  22  25
ATOM     25  CB  ARG A  11       3.302   2.223  19.467  0.00  0.00    +0.031 C 
BRANCH  25  26
ATOM     26  CG  ARG A  11       3.866   1.810  20.806  0.00  0.00    +0.045 C 
BRANCH  26  27
ATOM     27  CD  ARG A  11       3.629   2.899  21.868  0.00  0.00    +0.174 C 
BRANCH  27  28
ATOM     28  NE  ARG A  11       4.100   2.387  23.164  0.00  0.00    -0.265 N 
ATOM     29  CZ  ARG A  11       3.391   1.680  24.041  0.00  0.00    +0.342 C 
ATOM     30  NH2 ARG A  11       3.976   1.285  25.169  0.00  0.00    -0.292 N 
ATOM     31 HH21 ARG A  11       3.439   0.732  25.867  0.00  0.00    +0.255 HD
ATOM     32 HH22 ARG A  11       4.970   1.530  25.353  0.00  0.00    +0.255 HD
ATOM     33  NH1 ARG A  11       2.157   1.265  23.774  0.00  0.00    -0.292 N 
ATOM     34 HH11 ARG A  11       1.629   0.714  24.481  0.00  0.00    +0.255 HD
ATOM     35 HH12 ARG A  11       1.719   1.491  22.858  0.00  0.00    +0.255 HD
ATOM     36  HE  ARG A  11       5.085   2.599  23.421  0.00  0.00    +0.259 HD
ENDBRANCH  27  28
ENDBRANCH  26  27
ENDBRANCH  25  26
ENDBRANCH  22  25
ENDBRANCH  20  22
ENDBRANCH  17  18
BRANCH  17  37
ATOM     37  CB  ASN A  10       1.329   5.569  15.702  0.00  0.00    +0.114 C 
BRANCH  37  38
ATOM     38  CG  ASN A  10       1.040   6.982  16.094  0.00  0.00    +0.222 C 
ATOM     39  ND2 ASN A  10       0.279   7.104  17.170  0.00  0.00    -0.329 N 
ATOM     40 HD21 ASN A  10      -0.019   6.257  17.695  0.00  0.00    +0.145 HD
ATOM     41 HD22 ASN A  10      -0.021   8.047  17.491  0.00  0.00    +0.145 HD
ATOM     42  OD1 ASN A  10       1.428   7.935  15.428  0.00  0.00    -0.275 OA
ENDBRANCH  37  38
ENDBRANCH  17  37
ENDBRANCH  15  17
ENDBRANCH  12  13
BRANCH  12  43
ATOM     43  CB  VAL A   9       4.304   2.393  12.257  0.00  0.00    +0.027 C 
ATOM     44  CG2 VAL A   9       5.406   3.365  11.818  0.00  0.00    +0.002 C 
ATOM     45  CG1 VAL A   9       4.500   0.987  11.631  0.00  0.00    +0.002 C 
ENDBRANCH  12  43
ENDBRANCH  10  12
ENDBRANCH   6   8
ENDBRANCH   4   6
ENDBRANCH   1   2
BRANCH   1  47
ATOM     46  C   SER A   6      -0.170   2.458  12.877  0.00  0.00    +0.243 C 
ATOM     47  N   ASN A   7      -1.096   1.957  13.688  0.00  0.00    -0.297 N 
ATOM     48  H   ASN A   7      -1.875   1.386  13.304  0.00  0.00    +0.150 HD
ATOM     49  O   SER A   6       0.700   3.236  13.263  0.00  0.00    -0.273 OA
BRANCH  46  50
ATOM     50  CA  SER A   6      -0.288   2.114  11.371  0.00  0.00    +0.178 C 
BRANCH  50  53
ATOM     51  C   GLY A   5       0.160  -0.279  11.616  0.00  0.00    +0.243 C 
ATOM     52  O   GLY A   5       1.303  -0.085  12.058  0.00  0.00    -0.273 OA
ATOM     53  N   SER A   6      -0.624   0.706  11.214  0.00  0.00    -0.295 N 
ATOM     54  H   SER A   6      -1.528   0.463  10.762  0.00  0.00    +0.150 HD
BRANCH  51  55
ATOM     55  CA  GLY A   5      -0.376  -1.681  11.408  0.00  0.00    +0.176 C 
BRANCH  55  58
ATOM     56  C   GLY A   4      -2.168  -1.524  13.019  0.00  0.00    +0.243 C 
ATOM     57  O   GLY A   4      -1.411  -1.187  13.905  0.00  0.00    -0.273 OA
ATOM     58  N   GLY A   5      -1.758  -1.795  11.784  0.00  0.00    -0.295 N 
ATOM     59  H   GLY A   5      -2.454  -2.097  11.073  0.00  0.00    +0.150 HD
BRANCH  56  60
ATOM     60  CA  GLY A   4      -3.656  -1.593  13.257  0.00  0.00    +0.176 C 
BRANCH  60  63
ATOM     61  C   GLY A   3      -4.363   0.295  12.002  0.00  0.00    +0.243 C 
ATOM     62  O   GLY A   3      -3.627   1.021  12.665  0.00  0.00    -0.273 OA
ATOM     63  N   GLY A   4      -4.453  -1.004  12.224  0.00  0.00    -0.295 N 
ATOM     64  H   GLY A   4      -5.095  -1.592  11.655  0.00  0.00    +0.150 HD
BRANCH  61  65
ATOM     65  CA  GLY A   3      -5.262   0.856  10.917  0.00  0.00    +0.176 C 
BRANCH  65  67
ATOM     66  C   GLY A   2      -3.967   0.287   8.915  0.00  0.00    +0.243 C 
ATOM     67  N   GLY A   3      -5.100   0.185   9.602  0.00  0.00    -0.295 N 
ATOM     68  H   GLY A   3      -5.886  -0.374   9.212  0.00  0.00    +0.150 HD
ATOM     69  O   GLY A   2      -2.945   0.776   9.398  0.00  0.00    -0.273 OA
BRANCH  66  70
ATOM     70  CA  GLY A   2      -3.990  -0.275   7.509  0.00  0.00    +0.176 C 
BRANCH  70  73
ATOM     71  C   VAL A   1      -1.768  -1.101   7.136  0.00  0.00    +0.238 C 
ATOM     72  O   VAL A   1      -1.934  -2.110   7.828  0.00  0.00    -0.274 OA
ATOM     73  N   GLY A   2      -2.728  -0.212   6.846  0.00  0.00    -0.296 N 
ATOM     74  H   GLY A   2      -2.553   0.527   6.135  0.00  0.00    +0.150 HD
BRANCH  71  75
ATOM     75  CA  VAL A   1      -0.428  -0.841   6.500  0.00  0.00    +0.145 C 
BRANCH  75  76
ATOM     76  CB  VAL A   1      -0.043  -2.016   5.542  0.00  0.00    +0.025 C 
ATOM     77  CG2 VAL A   1       1.413  -1.918   5.091  0.00  0.00    +0.002 C 
ATOM     78  CG1 VAL A   1      -0.967  -2.054   4.386  0.00  0.00    +0.002 C 
ENDBRANCH  75  76
BRANCH  75  79
ATOM     79  N   VAL A   1       0.573  -0.697   7.552  0.00  0.00    -0.238 NA
ATOM     80  H   VAL A   1       0.685  -1.470   8.239  0.00  0.00    +0.142 HD
ENDBRANCH  75  79
ENDBRANCH  71  75
ENDBRANCH  70  73
ENDBRANCH  66  70
ENDBRANCH  65  67
ENDBRANCH  61  65
ENDBRANCH  60  63
ENDBRANCH  56  60
ENDBRANCH  55  58
ENDBRANCH  51  55
ENDBRANCH  50  53
BRANCH  50  81
ATOM     81  CB  SER A   6      -1.339   3.038  10.704  0.00  0.00    +0.166 C 
BRANCH  81  82
ATOM     82  OG  SER A   6      -1.304   2.959   9.319  0.00  0.00    -0.380 OA
ATOM     83  H   SER A   6      -1.490   2.028   9.038  0.00  0.00    +0.211 HD
ENDBRANCH  81  82
ENDBRANCH  50  81
ENDBRANCH  46  50
ENDBRANCH   1  47
BRANCH   1  84
ATOM     84  CB  ASN A   7      -2.270   1.726  15.849  0.00  0.00    +0.114 C 
BRANCH  84  85
ATOM     85  CG  ASN A   7      -3.461   2.576  15.609  0.00  0.00    +0.222 C 
ATOM     86  ND2 ASN A   7      -4.635   2.090  16.023  0.00  0.00    -0.329 N 
ATOM     87 HD21 ASN A   7      -4.678   1.161  16.489  0.00  0.00    +0.145 HD
ATOM     88 HD22 ASN A   7      -5.506   2.640  15.879  0.00  0.00    +0.145 HD
ATOM     89  OD1 ASN A   7      -3.344   3.646  15.062  0.00  0.00    -0.275 OA
ENDBRANCH  84  85
ENDBRANCH   1  84
TORSDOF 34
REMARK  Name = ../refined-set-2016/2r75/2r75_pocket.pdb
REMARK  217 active torsions:
REMARK  status: ('A' for Active; 'I' for Inactive)
REMARK    1  A    between atoms: _1  and  _3
REMARK    2  A    between atoms: _3  and  _4
REMARK    3  A    between atoms: _3  and  _6
REMARK    4  A    between atoms: _9  and  _11
REMARK    5  A    between atoms: _11  and  _12
REMARK    6  A    between atoms: _14  and  _16
REMARK    7  A    between atoms: _16  and  _17
REMARK    8  A    between atoms: _19  and  _21
REMARK    9  A    between atoms: _21  and  _22
REMARK   10  A    between atoms: _24  and  _26
REMARK   11  A    between atoms: _26  and  _27
REMARK   12  A    between atoms: _29  and  _31
REMARK   13  A    between atoms: _31  and  _32
REMARK   14  A    between atoms: _31  and  _34
REMARK   15  A    between atoms: _34  and  _35
REMARK   16  A    between atoms: _37  and  _39
REMARK   17  A    between atoms: _39  and  _40
REMARK   18  A    between atoms: _39  and  _42
REMARK   19  A    between atoms: _42  and  _43
REMARK   20  A    between atoms: _48  and  _50
REMARK   21  A    between atoms: _50  and  _51
REMARK   22  A    between atoms: _54  and  _56
REMARK   23  A    between atoms: _56  and  _57
REMARK   24  A    between atoms: _56  and  _59
REMARK   25  A    between atoms: _62  and  _64
REMARK   26  A    between atoms: _64  and  _65
REMARK   27  A    between atoms: _64  and  _67
REMARK   28  A    between atoms: _67  and  _68
REMARK   29  A    between atoms: _73  and  _75
REMARK   30  A    between atoms: _75  and  _76
REMARK   31  A    between atoms: _75  and  _78
REMARK   32  A    between atoms: _78  and  _79
REMARK   33  A    between atoms: _79  and  _80
REMARK   34  A    between atoms: _80  and  _81
REMARK   35  A    between atoms: _90  and  _92
REMARK   36  A    between atoms: _92  and  _93
REMARK   37  A    between atoms: _92  and  _95
REMARK   38  A    between atoms: _95  and  _96
REMARK   39  A    between atoms: _99  and  _101
REMARK   40  A    between atoms: _101  and  _102
REMARK   41  A    between atoms: _101  and  _104
REMARK   42  A    between atoms: _104  and  _105
REMARK   43  A    between atoms: _110  and  _112
REMARK   44  A    between atoms: _112  and  _113
REMARK   45  A    between atoms: _112  and  _115
REMARK   46  A    between atoms: _115  and  _116
REMARK   47  A    between atoms: _119  and  _121
REMARK   48  A    between atoms: _121  and  _122
REMARK   49  A    between atoms: _121  and  _124
REMARK   50  A    between atoms: _124  and  _125
REMARK   51  A    between atoms: _128  and  _130
REMARK   52  A    between atoms: _130  and  _131
REMARK   53  A    between atoms: _130  and  _133
REMARK   54  A    between atoms: _133  and  _134
REMARK   55  A    between atoms: _139  and  _141
REMARK   56  A    between atoms: _141  and  _142
REMARK   57  A    between atoms: _141  and  _144
REMARK   58  A    between atoms: _144  and  _145
REMARK   59  A    between atoms: _148  and  _150
REMARK   60  A    between atoms: _150  and  _151
REMARK   61  A    between atoms: _150  and  _153
REMARK   62  A    between atoms: _153  and  _154
REMARK   63  A    between atoms: _157  and  _159
REMARK   64  A    between atoms: _159  and  _160
REMARK   65  A    between atoms: _162  and  _164
REMARK   66  A    between atoms: _164  and  _165
REMARK   67  A    between atoms: _168  and  _170
REMARK   68  A    between atoms: _170  and  _171
REMARK   69  A    between atoms: _173  and  _175
REMARK   70  A    between atoms: _175  and  _176
REMARK   71  A    between atoms: _179  and  _181
REMARK   72  A    between atoms: _181  and  _182
REMARK   73  A    between atoms: _181  and  _184
REMARK   74  A    between atoms: _184  and  _185
REMARK   75  A    between atoms: _185  and  _186
REMARK   76  A    between atoms: _186  and  _187
REMARK   77  A    between atoms: _187  and  _188
REMARK   78  A    between atoms: _193  and  _194
REMARK   79  A    between atoms: _199  and  _201
REMARK   80  A    between atoms: _201  and  _202
REMARK   81  A    between atoms: _201  and  _204
REMARK   82  A    between atoms: _207  and  _209
REMARK   83  A    between atoms: _209  and  _210
REMARK   84  A    between atoms: _212  and  _214
REMARK   85  A    between atoms: _214  and  _215
REMARK   86  A    between atoms: _214  and  _217
REMARK   87  A    between atoms: _217  and  _218
REMARK   88  A    between atoms: _220  and  _222
REMARK   89  A    between atoms: _222  and  _223
REMARK   90  A    between atoms: _226  and  _228
REMARK   91  A    between atoms: _228  and  _229
REMARK   92  A    between atoms: _231  and  _233
REMARK   93  A    between atoms: _233  and  _234
REMARK   94  A    between atoms: _233  and  _236
REMARK   95  A    between atoms: _236  and  _237
REMARK   96  A    between atoms: _240  and  _242
REMARK   97  A    between atoms: _242  and  _243
REMARK   98  A    between atoms: _245  and  _247
REMARK   99  A    between atoms: _247  and  _248
REMARK  100  A    between atoms: _250  and  _252
REMARK  101  A    between atoms: _252  and  _253
REMARK  102  A    between atoms: _255  and  _257
REMARK  103  A    between atoms: _257  and  _258
REMARK  104  A    between atoms: _257  and  _260
REMARK  105  A    between atoms: _260  and  _261
REMARK  106  A    between atoms: _264  and  _266
REMARK  107  A    between atoms: _266  and  _267
REMARK  108  A    between atoms: _269  and  _271
REMARK  109  A    between atoms: _271  and  _272
REMARK  110  A    between atoms: _271  and  _274
REMARK  111  A    between atoms: _274  and  _275
REMARK  112  A    between atoms: _278  and  _280
REMARK  113  A    between atoms: _280  and  _281
REMARK  114  A    between atoms: _283  and  _285
REMARK  115  A    between atoms: _285  and  _286
REMARK  116  A    between atoms: _289  and  _291
REMARK  117  A    between atoms: _291  and  _292
REMARK  118  A    between atoms: _295  and  _297
REMARK  119  A    between atoms: _297  and  _298
REMARK  120  A    between atoms: _297  and  _300
REMARK  121  A    between atoms: _300  and  _301
REMARK  122  A    between atoms: _304  and  _306
REMARK  123  A    between atoms: _306  and  _307
REMARK  124  A    between atoms: _306  and  _309
REMARK  125  A    between atoms: _309  and  _310
REMARK  126  A    between atoms: _314  and  _315
REMARK  127  A    between atoms: _320  and  _322
REMARK  128  A    between atoms: _322  and  _323
REMARK  129  A    between atoms: _322  and  _325
REMARK  130  A    between atoms: _325  and  _326
REMARK  131  A    between atoms: _332  and  _334
REMARK  132  A    between atoms: _334  and  _335
REMARK  133  A    between atoms: _334  and  _337
REMARK  134  A    between atoms: _337  and  _338
REMARK  135  A    between atoms: _344  and  _346
REMARK  136  A    between atoms: _346  and  _347
REMARK  137  A    between atoms: _346  and  _349
REMARK  138  A    between atoms: _349  and  _350
REMARK  139  A    between atoms: _350  and  _351
REMARK  140  A    between atoms: _354  and  _356
REMARK  141  A    between atoms: _356  and  _357
REMARK  142  A    between atoms: _356  and  _359
REMARK  143  A    between atoms: _359  and  _360
REMARK  144  A    between atoms: _360  and  _361
REMARK  145  A    between atoms: _361  and  _362
REMARK  146  A    between atoms: _362  and  _363
REMARK  147  A    between atoms: _367  and  _369
REMARK  148  A    between atoms: _369  and  _370
REMARK  149  A    between atoms: _369  and  _372
REMARK  150  A    between atoms: _372  and  _373
REMARK  151  A    between atoms: _373  and  _374
REMARK  152  A    between atoms: _376  and  _378
REMARK  153  A    between atoms: _378  and  _379
REMARK  154  A    between atoms: _378  and  _381
REMARK  155  A    between atoms: _381  and  _382
REMARK  156  A    between atoms: _382  and  _383
REMARK  157  A    between atoms: _383  and  _384
REMARK  158  A    between atoms: _384  and  _385
REMARK  159  A    between atoms: _389  and  _391
REMARK  160  A    between atoms: _391  and  _392
REMARK  161  A    between atoms: _395  and  _397
REMARK  162  A    between atoms: _397  and  _398
REMARK  163  A    between atoms: _397  and  _400
REMARK  164  A    between atoms: _400  and  _401
REMARK  165  A    between atoms: _406  and  _408
REMARK  166  A    between atoms: _408  and  _409
REMARK  167  A    between atoms: _408  and  _411
REMARK  168  A    between atoms: _411  and  _412
REMARK  169  A    between atoms: _415  and  _417
REMARK  170  A    between atoms: _417  and  _418
REMARK  171  A    between atoms: _417  and  _420
REMARK  172  A    between atoms: _420  and  _421
REMARK  173  A    between atoms: _424  and  _426
REMARK  174  A    between atoms: _426  and  _427
REMARK  175  A    between atoms: _426  and  _429
REMARK  176  A    between atoms: _429  and  _430
REMARK  177  A    between atoms: _430  and  _431
REMARK  178  A    between atoms: _431  and  _432
REMARK  179  A    between atoms: _432  and  _433
REMARK  180  A    between atoms: _437  and  _439
REMARK  181  A    between atoms: _439  and  _440
REMARK  182  A    between atoms: _443  and  _445
REMARK  183  A    between atoms: _445  and  _446
REMARK  184  A    between atoms: _445  and  _448
REMARK  185  A    between atoms: _448  and  _449
REMARK  186  A    between atoms: _455  and  _457
REMARK  187  A    between atoms: _457  and  _458
REMARK  188  A    between atoms: _457  and  _460
REMARK  189  A    between atoms: _461  and  _462
REMARK  190  A    between atoms: _462  and  _463
REMARK  191  A    between atoms: _463  and  _464
REMARK  192  A    between atoms: _468  and  _470
REMARK  193  A    between atoms: _470  and  _471
REMARK  194  A    between atoms: _470  and  _473
REMARK  195  A    between atoms: _474  and  _475
REMARK  196  A    between atoms: _478  and  _480
REMARK  197  A    between atoms: _480  and  _481
REMARK  198  A    between atoms: _480  and  _483
REMARK  199  A    between atoms: _486  and  _488
REMARK  200  A    between atoms: _488  and  _489
REMARK  201  A    between atoms: _488  and  _491
REMARK  202  A    between atoms: _491  and  _492
REMARK  203  A    between atoms: _495  and  _497
REMARK  204  A    between atoms: _497  and  _498
REMARK  205  A    between atoms: _497  and  _500
REMARK  206  A    between atoms: _500  and  _501
REMARK  207  A    between atoms: _503  and  _505
REMARK  208  A    between atoms: _505  and  _506
REMARK  209  A    between atoms: _505  and  _508
REMARK  210  A    between atoms: _511  and  _513
REMARK  211  A    between atoms: _513  and  _514
REMARK  212  A    between atoms: _513  and  _516
REMARK  213  A    between atoms: _516  and  _517
REMARK  214  A    between atoms: _520  and  _522
REMARK  215  A    between atoms: _522  and  _523
REMARK  216  A    between atoms: _522  and  _525
REMARK  217  A    between atoms: _525  and  _526
REMARK                            x       y       z     vdW  Elec       q    Type
REMARK                         _______ _______ _______ _____ _____    ______ ____
ROOT
ATOM      1  C   ASN A   2      -4.903   3.890   3.447  0.00  0.00    +0.241 C 
ATOM      2  N   THR A   3      -6.031   3.197   3.363  0.00  0.00    -0.295 N 
ATOM      3  H   THR A   3      -6.141   2.343   3.947  0.00  0.00    +0.150 HD
ATOM      4  O   ASN A   2      -4.583   4.812   2.707  0.00  0.00    -0.273 OA
ENDROOT
BRANCH   2   5
ATOM      5  CA  THR A   3      -7.120   3.592   2.481  0.00  0.00    +0.176 C 
BRANCH   5   6
ATOM      6  C   THR A   3      -8.115   4.493   3.217  0.00  0.00    +0.243 C 
ATOM      7  N   ASP A   4      -7.998   4.600   4.530  0.00  0.00    -0.297 N 
ATOM      8  H   ASP A   4      -7.211   4.091   4.982  0.00  0.00    +0.150 HD
ATOM      9  O   THR A   3      -8.974   5.077   2.601  0.00  0.00    -0.273 OA
BRANCH   7  10
ATOM     10  CA  ASP A   4      -8.877   5.369   5.393  0.00  0.00    +0.148 C 
BRANCH  10  11
ATOM     11  C   ASP A   4      -8.127   6.685   5.766  0.00  0.00    +0.227 C 
ATOM     12  O   ASP A   4      -7.209   6.736   6.609  0.00  0.00    -0.286 OA
ENDBRANCH  10  11
BRANCH  10  13
ATOM     13  CB  ASP A   4      -9.157   4.519   6.644  0.00  0.00    +0.142 C 
BRANCH  13  14
ATOM     14  CG  ASP A   4      -9.850   5.234   7.781  0.00  0.00    +0.367 C 
ATOM     15  OD2 ASP A   4     -10.055   4.495   8.814  0.00  0.00    -0.246 OA
ATOM     16  OD1 ASP A   4     -10.138   6.461   7.746  0.00  0.00    -0.246 OA
ENDBRANCH  13  14
ENDBRANCH  10  13
ENDBRANCH   7  10
ENDBRANCH   5   6
BRANCH   5  17
ATOM     17  CB  THR A   3      -7.919   2.337   2.055  0.00  0.00    +0.137 C 
ATOM     18  CG2 THR A   3      -7.127   1.425   1.111  0.00  0.00    +0.034 C 
BRANCH  17  19
ATOM     19  OG1 THR A   3      -8.304   1.619   3.240  0.00  0.00    -0.382 OA
ATOM     20  HG1 THR A   3      -7.493   1.351   3.740  0.00  0.00    +0.210 HD
ENDBRANCH  17  19
ENDBRANCH   5  17
ENDBRANCH   2   5
BRANCH   1  21
ATOM     21  CA  ASN A   2      -4.001   3.448   4.562  0.00  0.00    +0.158 C 
BRANCH  21  24
ATOM     22  C   ILE A   1      -1.619   3.173   4.836  0.00  0.00    +0.238 C 
ATOM     23  O   ILE A   1      -1.789   2.174   5.530  0.00  0.00    -0.274 OA
ATOM     24  N   ASN A   2      -2.624   3.866   4.318  0.00  0.00    -0.297 N 
ATOM     25  H   ASN A   2      -2.431   4.707   3.738  0.00  0.00    +0.150 HD
BRANCH  22  26
ATOM     26  CA  ILE A   1      -0.206   3.637   4.500  0.00  0.00    +0.145 C 
BRANCH  26  27
ATOM     27  N   ILE A   1       0.554   3.758   5.732  0.00  0.00    -0.238 NA
ATOM     28  H   ILE A   1       0.733   2.896   6.285  0.00  0.00    +0.142 HD
ENDBRANCH  26  27
BRANCH  26  29
ATOM     29  CB  ILE A   1       0.442   2.651   3.515  0.00  0.00    +0.025 C 
ATOM     30  CG2 ILE A   1      -0.442   2.376   2.284  0.00  0.00    +0.002 C 
BRANCH  29  31
ATOM     31  CG1 ILE A   1       1.840   3.119   3.069  0.00  0.00    +0.002 C 
ATOM     32  CD1 ILE A   1       2.499   2.224   2.100  0.00  0.00    +0.000 C 
ENDBRANCH  29  31
ENDBRANCH  26  29
ENDBRANCH  22  26
ENDBRANCH  21  24
BRANCH  21  33
ATOM     33  CB  ASN A   2      -4.521   3.993   5.918  0.00  0.00    +0.114 C 
BRANCH  33  34
ATOM     34  CG  ASN A   2      -5.543   3.081   6.644  0.00  0.00    +0.222 C 
ATOM     35  ND2 ASN A   2      -5.604   3.246   7.957  0.00  0.00    -0.329 N 
ATOM     36 HD21 ASN A   2      -6.253   2.664   8.525  0.00  0.00    +0.145 HD
ATOM     37 HD22 ASN A   2      -5.003   3.957   8.420  0.00  0.00    +0.145 HD
ATOM     38  OD1 ASN A   2      -6.212   2.278   6.064  0.00  0.00    -0.275 OA
ENDBRANCH  33  34
ENDBRANCH  21  33
ENDBRANCH   1  21
TORSDOF 16
REMARK  Name = ../refined-set-2016/2r75/2r75_pocket.pdb
REMARK  217 active torsions:
REMARK  status: ('A' for Active; 'I' for Inactive)
REMARK    1  A    between atoms: _1  and  _3
REMARK    2  A    between atoms: _3  and  _4
REMARK    3  A    between atoms: _3  and  _6
REMARK    4  A    between atoms: _9  and  _11
REMARK    5  A    between atoms: _11  and  _12
REMARK    6  A    between atoms: _14  and  _16
REMARK    7  A    between atoms: _16  and  _17
REMARK    8  A    between atoms: _19  and  _21
REMARK    9  A    between atoms: _21  and  _22
REMARK   10  A    between atoms: _24  and  _26
REMARK   11  A    between atoms: _26  and  _27
REMARK   12  A    between atoms: _29  and  _31
REMARK   13  A    between atoms: _31  and  _32
REMARK   14  A    between atoms: _31  and  _34
REMARK   15  A    between atoms: _34  and  _35
REMARK   16  A    between atoms: _37  and  _39
REMARK   17  A    between atoms: _39  and  _40
REMARK   18  A    between atoms: _39  and  _42
REMARK   19  A    between atoms: _42  and  _43
REMARK   20  A    between atoms: _48  and  _50
REMARK   21  A    between atoms: _50  and  _51
REMARK   22  A    between atoms: _54  and  _56
REMARK   23  A    between atoms: _56  and  _57
REMARK   24  A    between atoms: _56  and  _59
REMARK   25  A    between atoms: _62  and  _64
REMARK   26  A    between atoms: _64  and  _65
REMARK   27  A    between atoms: _64  and  _67
REMARK   28  A    between atoms: _67  and  _68
REMARK   29  A    between atoms: _73  and  _75
REMARK   30  A    between atoms: _75  and  _76
REMARK   31  A    between atoms: _75  and  _78
REMARK   32  A    between atoms: _78  and  _79
REMARK   33  A    between atoms: _79  and  _80
REMARK   34  A    between atoms: _80  and  _81
REMARK   35  A    between atoms: _90  and  _92
REMARK   36  A    between atoms: _92  and  _93
REMARK   37  A    between atoms: _92  and  _95
REMARK   38  A    between atoms: _95  and  _96
REMARK   39  A    between atoms: _99  and  _101
REMARK   40  A    between atoms: _101  and  _102
REMARK   41  A    between atoms: _101  and  _104
REMARK   42  A    between atoms: _104  and  _105
REMARK   43  A    between atoms: _110  and  _112
REMARK   44  A    between atoms: _112  and  _113
REMARK   45  A    between atoms: _112  and  _115
REMARK   46  A    between atoms: _115  and  _116
REMARK   47  A    between atoms: _119  and  _121
REMARK   48  A    between atoms: _121  and  _122
REMARK   49  A    between atoms: _121  and  _124
REMARK   50  A    between atoms: _124  and  _125
REMARK   51  A    between atoms: _128  and  _130
REMARK   52  A    between atoms: _130  and  _131
REMARK   53  A    between atoms: _130  and  _133
REMARK   54  A    between atoms: _133  and  _134
REMARK   55  A    between atoms: _139  and  _141
REMARK   56  A    between atoms: _141  and  _142
REMARK   57  A    between atoms: _141  and  _144
REMARK   58  A    between atoms: _144  and  _145
REMARK   59  A    between atoms: _148  and  _150
REMARK   60  A    between atoms: _150  and  _151
REMARK   61  A    between atoms: _150  and  _153
REMARK   62  A    between atoms: _153  and  _154
REMARK   63  A    between atoms: _157  and  _159
REMARK   64  A    between atoms: _159  and  _160
REMARK   65  A    between atoms: _162  and  _164
REMARK   66  A    between atoms: _164  and  _165
REMARK   67  A    between atoms: _168  and  _170
REMARK   68  A    between atoms: _170  and  _171
REMARK   69  A    between atoms: _173  and  _175
REMARK   70  A    between atoms: _175  and  _176
REMARK   71  A    between atoms: _179  and  _181
REMARK   72  A    between atoms: _181  and  _182
REMARK   73  A    between atoms: _181  and  _184
REMARK   74  A    between atoms: _184  and  _185
REMARK   75  A    between atoms: _185  and  _186
REMARK   76  A    between atoms: _186  and  _187
REMARK   77  A    between atoms: _187  and  _188
REMARK   78  A    between atoms: _193  and  _194
REMARK   79  A    between atoms: _199  and  _201
REMARK   80  A    between atoms: _201  and  _202
REMARK   81  A    between atoms: _201  and  _204
REMARK   82  A    between atoms: _207  and  _209
REMARK   83  A    between atoms: _209  and  _210
REMARK   84  A    between atoms: _212  and  _214
REMARK   85  A    between atoms: _214  and  _215
REMARK   86  A    between atoms: _214  and  _217
REMARK   87  A    between atoms: _217  and  _218
REMARK   88  A    between atoms: _220  and  _222
REMARK   89  A    between atoms: _222  and  _223
REMARK   90  A    between atoms: _226  and  _228
REMARK   91  A    between atoms: _228  and  _229
REMARK   92  A    between atoms: _231  and  _233
REMARK   93  A    between atoms: _233  and  _234
REMARK   94  A    between atoms: _233  and  _236
REMARK   95  A    between atoms: _236  and  _237
REMARK   96  A    between atoms: _240  and  _242
REMARK   97  A    between atoms: _242  and  _243
REMARK   98  A    between atoms: _245  and  _247
REMARK   99  A    between atoms: _247  and  _248
REMARK  100  A    between atoms: _250  and  _252
REMARK  101  A    between atoms: _252  and  _253
REMARK  102  A    between atoms: _255  and  _257
REMARK  103  A    between atoms: _257  and  _258
REMARK  104  A    between atoms: _257  and  _260
REMARK  105  A    between atoms: _260  and  _261
REMARK  106  A    between atoms: _264  and  _266
REMARK  107  A    between atoms: _266  and  _267
REMARK  108  A    between atoms: _269  and  _271
REMARK  109  A    between atoms: _271  and  _272
REMARK  110  A    between atoms: _271  and  _274
REMARK  111  A    between atoms: _274  and  _275
REMARK  112  A    between atoms: _278  and  _280
REMARK  113  A    between atoms: _280  and  _281
REMARK  114  A    between atoms: _283  and  _285
REMARK  115  A    between atoms: _285  and  _286
REMARK  116  A    between atoms: _289  and  _291
REMARK  117  A    between atoms: _291  and  _292
REMARK  118  A    between atoms: _295  and  _297
REMARK  119  A    between atoms: _297  and  _298
REMARK  120  A    between atoms: _297  and  _300
REMARK  121  A    between atoms: _300  and  _301
REMARK  122  A    between atoms: _304  and  _306
REMARK  123  A    between atoms: _306  and  _307
REMARK  124  A    between atoms: _306  and  _309
REMARK  125  A    between atoms: _309  and  _310
REMARK  126  A    between atoms: _314  and  _315
REMARK  127  A    between atoms: _320  and  _322
REMARK  128  A    between atoms: _322  and  _323
REMARK  129  A    between atoms: _322  and  _325
REMARK  130  A    between atoms: _325  and  _326
REMARK  131  A    between atoms: _332  and  _334
REMARK  132  A    between atoms: _334  and  _335
REMARK  133  A    between atoms: _334  and  _337
REMARK  134  A    between atoms: _337  and  _338
REMARK  135  A    between atoms: _344  and  _346
REMARK  136  A    between atoms: _346  and  _347
REMARK  137  A    between atoms: _346  and  _349
REMARK  138  A    between atoms: _349  and  _350
REMARK  139  A    between atoms: _350  and  _351
REMARK  140  A    between atoms: _354  and  _356
REMARK  141  A    between atoms: _356  and  _357
REMARK  142  A    between atoms: _356  and  _359
REMARK  143  A    between atoms: _359  and  _360
REMARK  144  A    between atoms: _360  and  _361
REMARK  145  A    between atoms: _361  and  _362
REMARK  146  A    between atoms: _362  and  _363
REMARK  147  A    between atoms: _367  and  _369
REMARK  148  A    between atoms: _369  and  _370
REMARK  149  A    between atoms: _369  and  _372
REMARK  150  A    between atoms: _372  and  _373
REMARK  151  A    between atoms: _373  and  _374
REMARK  152  A    between atoms: _376  and  _378
REMARK  153  A    between atoms: _378  and  _379
REMARK  154  A    between atoms: _378  and  _381
REMARK  155  A    between atoms: _381  and  _382
REMARK  156  A    between atoms: _382  and  _383
REMARK  157  A    between atoms: _383  and  _384
REMARK  158  A    between atoms: _384  and  _385
REMARK  159  A    between atoms: _389  and  _391
REMARK  160  A    between atoms: _391  and  _392
REMARK  161  A    between atoms: _395  and  _397
REMARK  162  A    between atoms: _397  and  _398
REMARK  163  A    between atoms: _397  and  _400
REMARK  164  A    between atoms: _400  and  _401
REMARK  165  A    between atoms: _406  and  _408
REMARK  166  A    between atoms: _408  and  _409
REMARK  167  A    between atoms: _408  and  _411
REMARK  168  A    between atoms: _411  and  _412
REMARK  169  A    between atoms: _415  and  _417
REMARK  170  A    between atoms: _417  and  _418
REMARK  171  A    between atoms: _417  and  _420
REMARK  172  A    between atoms: _420  and  _421
REMARK  173  A    between atoms: _424  and  _426
REMARK  174  A    between atoms: _426  and  _427
REMARK  175  A    between atoms: _426  and  _429
REMARK  176  A    between atoms: _429  and  _430
REMARK  177  A    between atoms: _430  and  _431
REMARK  178  A    between atoms: _431  and  _432
REMARK  179  A    between atoms: _432  and  _433
REMARK  180  A    between atoms: _437  and  _439
REMARK  181  A    between atoms: _439  and  _440
REMARK  182  A    between atoms: _443  and  _445
REMARK  183  A    between atoms: _445  and  _446
REMARK  184  A    between atoms: _445  and  _448
REMARK  185  A    between atoms: _448  and  _449
REMARK  186  A    between atoms: _455  and  _457
REMARK  187  A    between atoms: _457  and  _458
REMARK  188  A    between atoms: _457  and  _460
REMARK  189  A    between atoms: _461  and  _462
REMARK  190  A    between atoms: _462  and  _463
REMARK  191  A    between atoms: _463  and  _464
REMARK  192  A    between atoms: _468  and  _470
REMARK  193  A    between atoms: _470  and  _471
REMARK  194  A    between atoms: _470  and  _473
REMARK  195  A    between atoms: _474  and  _475
REMARK  196  A    between atoms: _478  and  _480
REMARK  197  A    between atoms: _480  and  _481
REMARK  198  A    between atoms: _480  and  _483
REMARK  199  A    between atoms: _486  and  _488
REMARK  200  A    between atoms: _488  and  _489
REMARK  201  A    between atoms: _488  and  _491
REMARK  202  A    between atoms: _491  and  _492
REMARK  203  A    between atoms: _495  and  _497
REMARK  204  A    between atoms: _497  and  _498
REMARK  205  A    between atoms: _497  and  _500
REMARK  206  A    between atoms: _500  and  _501
REMARK  207  A    between atoms: _503  and  _505
REMARK  208  A    between atoms: _505  and  _506
REMARK  209  A    between atoms: _505  and  _508
REMARK  210  A    between atoms: _511  and  _513
REMARK  211  A    between atoms: _513  and  _514
REMARK  212  A    between atoms: _513  and  _516
REMARK  213  A    between atoms: _516  and  _517
REMARK  214  A    between atoms: _520  and  _522
REMARK  215  A    between atoms: _522  and  _523
REMARK  216  A    between atoms: _522  and  _525
REMARK  217  A    between atoms: _525  and  _526
REMARK                            x       y       z     vdW  Elec       q    Type
REMARK                         _______ _______ _______ _____ _____    ______ ____
ROOT
ATOM      1  CB  HIS A   1      -7.330   5.947  10.272  0.00  0.00    +0.072 C 
ENDROOT
BRANCH   1   2
ATOM      2  CG  HIS A   1      -6.537   5.244  11.342  0.00  0.00    +0.082 A 
ATOM      3  CD2 HIS A   1      -6.894   4.917  12.604  0.00  0.00    +0.115 A 
ATOM      4  NE2 HIS A   1      -5.820   4.295  13.188  0.00  0.00    -0.221 NA
ATOM      5  CE1 HIS A   1      -4.828   4.262  12.327  0.00  0.00    +0.199 A 
ATOM      6  ND1 HIS A   1      -5.241   4.790  11.183  0.00  0.00    -0.227 NA
ENDBRANCH   1   2
BRANCH   1   7
ATOM      7  CA  HIS A   1      -7.349   7.483  10.421  0.00  0.00    +0.139 C 
BRANCH   7   8
ATOM      8  N   HIS A   1      -8.286   8.098   9.482  0.00  0.00    -0.239 NA
ATOM      9  H   HIS A   1      -8.790   7.516   8.783  0.00  0.00    +0.142 HD
ENDBRANCH   7   8
BRANCH   7  10
ATOM     10  C   HIS A   1      -5.964   8.004  10.235  0.00  0.00    +0.224 C 
ATOM     11  O   HIS A   1      -5.280   8.244  11.204  0.00  0.00    -0.287 OA
ENDBRANCH   7  10
ENDBRANCH   1   7
TORSDOF 4
REMARK  Name = ../refined-set-2016/2r75/2r75_pocket.pdb
REMARK  217 active torsions:
REMARK  status: ('A' for Active; 'I' for Inactive)
REMARK    1  A    between atoms: _1  and  _3
REMARK    2  A    between atoms: _3  and  _4
REMARK    3  A    between atoms: _3  and  _6
REMARK    4  A    between atoms: _9  and  _11
REMARK    5  A    between atoms: _11  and  _12
REMARK    6  A    between atoms: _14  and  _16
REMARK    7  A    between atoms: _16  and  _17
REMARK    8  A    between atoms: _19  and  _21
REMARK    9  A    between atoms: _21  and  _22
REMARK   10  A    between atoms: _24  and  _26
REMARK   11  A    between atoms: _26  and  _27
REMARK   12  A    between atoms: _29  and  _31
REMARK   13  A    between atoms: _31  and  _32
REMARK   14  A    between atoms: _31  and  _34
REMARK   15  A    between atoms: _34  and  _35
REMARK   16  A    between atoms: _37  and  _39
REMARK   17  A    between atoms: _39  and  _40
REMARK   18  A    between atoms: _39  and  _42
REMARK   19  A    between atoms: _42  and  _43
REMARK   20  A    between atoms: _48  and  _50
REMARK   21  A    between atoms: _50  and  _51
REMARK   22  A    between atoms: _54  and  _56
REMARK   23  A    between atoms: _56  and  _57
REMARK   24  A    between atoms: _56  and  _59
REMARK   25  A    between atoms: _62  and  _64
REMARK   26  A    between atoms: _64  and  _65
REMARK   27  A    between atoms: _64  and  _67
REMARK   28  A    between atoms: _67  and  _68
REMARK   29  A    between atoms: _73  and  _75
REMARK   30  A    between atoms: _75  and  _76
REMARK   31  A    between atoms: _75  and  _78
REMARK   32  A    between atoms: _78  and  _79
REMARK   33  A    between atoms: _79  and  _80
REMARK   34  A    between atoms: _80  and  _81
REMARK   35  A    between atoms: _90  and  _92
REMARK   36  A    between atoms: _92  and  _93
REMARK   37  A    between atoms: _92  and  _95
REMARK   38  A    between atoms: _95  and  _96
REMARK   39  A    between atoms: _99  and  _101
REMARK   40  A    between atoms: _101  and  _102
REMARK   41  A    between atoms: _101  and  _104
REMARK   42  A    between atoms: _104  and  _105
REMARK   43  A    between atoms: _110  and  _112
REMARK   44  A    between atoms: _112  and  _113
REMARK   45  A    between atoms: _112  and  _115
REMARK   46  A    between atoms: _115  and  _116
REMARK   47  A    between atoms: _119  and  _121
REMARK   48  A    between atoms: _121  and  _122
REMARK   49  A    between atoms: _121  and  _124
REMARK   50  A    between atoms: _124  and  _125
REMARK   51  A    between atoms: _128  and  _130
REMARK   52  A    between atoms: _130  and  _131
REMARK   53  A    between atoms: _130  and  _133
REMARK   54  A    between atoms: _133  and  _134
REMARK   55  A    between atoms: _139  and  _141
REMARK   56  A    between atoms: _141  and  _142
REMARK   57  A    between atoms: _141  and  _144
REMARK   58  A    between atoms: _144  and  _145
REMARK   59  A    between atoms: _148  and  _150
REMARK   60  A    between atoms: _150  and  _151
REMARK   61  A    between atoms: _150  and  _153
REMARK   62  A    between atoms: _153  and  _154
REMARK   63  A    between atoms: _157  and  _159
REMARK   64  A    between atoms: _159  and  _160
REMARK   65  A    between atoms: _162  and  _164
REMARK   66  A    between atoms: _164  and  _165
REMARK   67  A    between atoms: _168  and  _170
REMARK   68  A    between atoms: _170  and  _171
REMARK   69  A    between atoms: _173  and  _175
REMARK   70  A    between atoms: _175  and  _176
REMARK   71  A    between atoms: _179  and  _181
REMARK   72  A    between atoms: _181  and  _182
REMARK   73  A    between atoms: _181  and  _184
REMARK   74  A    between atoms: _184  and  _185
REMARK   75  A    between atoms: _185  and  _186
REMARK   76  A    between atoms: _186  and  _187
REMARK   77  A    between atoms: _187  and  _188
REMARK   78  A    between atoms: _193  and  _194
REMARK   79  A    between atoms: _199  and  _201
REMARK   80  A    between atoms: _201  and  _202
REMARK   81  A    between atoms: _201  and  _204
REMARK   82  A    between atoms: _207  and  _209
REMARK   83  A    between atoms: _209  and  _210
REMARK   84  A    between atoms: _212  and  _214
REMARK   85  A    between atoms: _214  and  _215
REMARK   86  A    between atoms: _214  and  _217
REMARK   87  A    between atoms: _217  and  _218
REMARK   88  A    between atoms: _220  and  _222
REMARK   89  A    between atoms: _222  and  _223
REMARK   90  A    between atoms: _226  and  _228
REMARK   91  A    between atoms: _228  and  _229
REMARK   92  A    between atoms: _231  and  _233
REMARK   93  A    between atoms: _233  and  _234
REMARK   94  A    between atoms: _233  and  _236
REMARK   95  A    between atoms: _236  and  _237
REMARK   96  A    between atoms: _240  and  _242
REMARK   97  A    between atoms: _242  and  _243
REMARK   98  A    between atoms: _245  and  _247
REMARK   99  A    between atoms: _247  and  _248
REMARK  100  A    between atoms: _250  and  _252
REMARK  101  A    between atoms: _252  and  _253
REMARK  102  A    between atoms: _255  and  _257
REMARK  103  A    between atoms: _257  and  _258
REMARK  104  A    between atoms: _257  and  _260
REMARK  105  A    between atoms: _260  and  _261
REMARK  106  A    between atoms: _264  and  _266
REMARK  107  A    between atoms: _266  and  _267
REMARK  108  A    between atoms: _269  and  _271
REMARK  109  A    between atoms: _271  and  _272
REMARK  110  A    between atoms: _271  and  _274
REMARK  111  A    between atoms: _274  and  _275
REMARK  112  A    between atoms: _278  and  _280
REMARK  113  A    between atoms: _280  and  _281
REMARK  114  A    between atoms: _283  and  _285
REMARK  115  A    between atoms: _285  and  _286
REMARK  116  A    between atoms: _289  and  _291
REMARK  117  A    between atoms: _291  and  _292
REMARK  118  A    between atoms: _295  and  _297
REMARK  119  A    between atoms: _297  and  _298
REMARK  120  A    between atoms: _297  and  _300
REMARK  121  A    between atoms: _300  and  _301
REMARK  122  A    between atoms: _304  and  _306
REMARK  123  A    between atoms: _306  and  _307
REMARK  124  A    between atoms: _306  and  _309
REMARK  125  A    between atoms: _309  and  _310
REMARK  126  A    between atoms: _314  and  _315
REMARK  127  A    between atoms: _320  and  _322
REMARK  128  A    between atoms: _322  and  _323
REMARK  129  A    between atoms: _322  and  _325
REMARK  130  A    between atoms: _325  and  _326
REMARK  131  A    between atoms: _332  and  _334
REMARK  132  A    between atoms: _334  and  _335
REMARK  133  A    between atoms: _334  and  _337
REMARK  134  A    between atoms: _337  and  _338
REMARK  135  A    between atoms: _344  and  _346
REMARK  136  A    between atoms: _346  and  _347
REMARK  137  A    between atoms: _346  and  _349
REMARK  138  A    between atoms: _349  and  _350
REMARK  139  A    between atoms: _350  and  _351
REMARK  140  A    between atoms: _354  and  _356
REMARK  141  A    between atoms: _356  and  _357
REMARK  142  A    between atoms: _356  and  _359
REMARK  143  A    between atoms: _359  and  _360
REMARK  144  A    between atoms: _360  and  _361
REMARK  145  A    between atoms: _361  and  _362
REMARK  146  A    between atoms: _362  and  _363
REMARK  147  A    between atoms: _367  and  _369
REMARK  148  A    between atoms: _369  and  _370
REMARK  149  A    between atoms: _369  and  _372
REMARK  150  A    between atoms: _372  and  _373
REMARK  151  A    between atoms: _373  and  _374
REMARK  152  A    between atoms: _376  and  _378
REMARK  153  A    between atoms: _378  and  _379
REMARK  154  A    between atoms: _378  and  _381
REMARK  155  A    between atoms: _381  and  _382
REMARK  156  A    between atoms: _382  and  _383
REMARK  157  A    between atoms: _383  and  _384
REMARK  158  A    between atoms: _384  and  _385
REMARK  159  A    between atoms: _389  and  _391
REMARK  160  A    between atoms: _391  and  _392
REMARK  161  A    between atoms: _395  and  _397
REMARK  162  A    between atoms: _397  and  _398
REMARK  163  A    between atoms: _397  and  _400
REMARK  164  A    between atoms: _400  and  _401
REMARK  165  A    between atoms: _406  and  _408
REMARK  166  A    between atoms: _408  and  _409
REMARK  167  A    between atoms: _408  and  _411
REMARK  168  A    between atoms: _411  and  _412
REMARK  169  A    between atoms: _415  and  _417
REMARK  170  A    between atoms: _417  and  _418
REMARK  171  A    between atoms: _417  and  _420
REMARK  172  A    between atoms: _420  and  _421
REMARK  173  A    between atoms: _424  and  _426
REMARK  174  A    between atoms: _426  and  _427
REMARK  175  A    between atoms: _426  and  _429
REMARK  176  A    between atoms: _429  and  _430
REMARK  177  A    between atoms: _430  and  _431
REMARK  178  A    between atoms: _431  and  _432
REMARK  179  A    between atoms: _432  and  _433
REMARK  180  A    between atoms: _437  and  _439
REMARK  181  A    between atoms: _439  and  _440
REMARK  182  A    between atoms: _443  and  _445
REMARK  183  A    between atoms: _445  and  _446
REMARK  184  A    between atoms: _445  and  _448
REMARK  185  A    between atoms: _448  and  _449
REMARK  186  A    between atoms: _455  and  _457
REMARK  187  A    between atoms: _457  and  _458
REMARK  188  A    between atoms: _457  and  _460
REMARK  189  A    between atoms: _461  and  _462
REMARK  190  A    between atoms: _462  and  _463
REMARK  191  A    between atoms: _463  and  _464
REMARK  192  A    between atoms: _468  and  _470
REMARK  193  A    between atoms: _470  and  _471
REMARK  194  A    between atoms: _470  and  _473
REMARK  195  A    between atoms: _474  and  _475
REMARK  196  A    between atoms: _478  and  _480
REMARK  197  A    between atoms: _480  and  _481
REMARK  198  A    between atoms: _480  and  _483
REMARK  199  A    between atoms: _486  and  _488
REMARK  200  A    between atoms: _488  and  _489
REMARK  201  A    between atoms: _488  and  _491
REMARK  202  A    between atoms: _491  and  _492
REMARK  203  A    between atoms: _495  and  _497
REMARK  204  A    between atoms: _497  and  _498
REMARK  205  A    between atoms: _497  and  _500
REMARK  206  A    between atoms: _500  and  _501
REMARK  207  A    between atoms: _503  and  _505
REMARK  208  A    between atoms: _505  and  _506
REMARK  209  A    between atoms: _505  and  _508
REMARK  210  A    between atoms: _511  and  _513
REMARK  211  A    between atoms: _513  and  _514
REMARK  212  A    between atoms: _513  and  _516
REMARK  213  A    between atoms: _516  and  _517
REMARK  214  A    between atoms: _520  and  _522
REMARK  215  A    between atoms: _522  and  _523
REMARK  216  A    between atoms: _522  and  _525
REMARK  217  A    between atoms: _525  and  _526
REMARK                            x       y       z     vdW  Elec       q    Type
REMARK                         _______ _______ _______ _____ _____    ______ ____
ROOT
ATOM      1  CA  THR A   1     -12.337   3.345  -1.659  0.00  0.00    +0.160 C 
ENDROOT
BRANCH   1   2
ATOM      2  N   THR A   1     -11.767   3.154  -2.988  0.00  0.00    -0.237 NA
ATOM      3  H   THR A   1     -10.886   3.649  -3.233  0.00  0.00    +0.142 HD
ENDBRANCH   1   2
BRANCH   1   4
ATOM      4  CB  THR A   1     -11.373   2.977  -0.529  0.00  0.00    +0.134 C 
ATOM      5  CG2 THR A   1     -10.713   1.636  -0.749  0.00  0.00    +0.034 C 
BRANCH   4   6
ATOM      6  OG1 THR A   1     -10.411   4.022  -0.364  0.00  0.00    -0.383 OA
ATOM      7  HG1 THR A   1      -9.904   4.138  -1.206  0.00  0.00    +0.210 HD
ENDBRANCH   4   6
ENDBRANCH   1   4
BRANCH   1   8
ATOM      8  C   THR A   1     -12.814   4.760  -1.331  0.00  0.00    +0.227 C 
ATOM      9  O   THR A   1     -13.485   4.967  -0.312  0.00  0.00    -0.287 OA
ENDBRANCH   1   8
TORSDOF 4
REMARK  Name = ../refined-set-2016/2r75/2r75_pocket.pdb
REMARK  217 active torsions:
REMARK  status: ('A' for Active; 'I' for Inactive)
REMARK    1  A    between atoms: _1  and  _3
REMARK    2  A    between atoms: _3  and  _4
REMARK    3  A    between atoms: _3  and  _6
REMARK    4  A    between atoms: _9  and  _11
REMARK    5  A    between atoms: _11  and  _12
REMARK    6  A    between atoms: _14  and  _16
REMARK    7  A    between atoms: _16  and  _17
REMARK    8  A    between atoms: _19  and  _21
REMARK    9  A    between atoms: _21  and  _22
REMARK   10  A    between atoms: _24  and  _26
REMARK   11  A    between atoms: _26  and  _27
REMARK   12  A    between atoms: _29  and  _31
REMARK   13  A    between atoms: _31  and  _32
REMARK   14  A    between atoms: _31  and  _34
REMARK   15  A    between atoms: _34  and  _35
REMARK   16  A    between atoms: _37  and  _39
REMARK   17  A    between atoms: _39  and  _40
REMARK   18  A    between atoms: _39  and  _42
REMARK   19  A    between atoms: _42  and  _43
REMARK   20  A    between atoms: _48  and  _50
REMARK   21  A    between atoms: _50  and  _51
REMARK   22  A    between atoms: _54  and  _56
REMARK   23  A    between atoms: _56  and  _57
REMARK   24  A    between atoms: _56  and  _59
REMARK   25  A    between atoms: _62  and  _64
REMARK   26  A    between atoms: _64  and  _65
REMARK   27  A    between atoms: _64  and  _67
REMARK   28  A    between atoms: _67  and  _68
REMARK   29  A    between atoms: _73  and  _75
REMARK   30  A    between atoms: _75  and  _76
REMARK   31  A    between atoms: _75  and  _78
REMARK   32  A    between atoms: _78  and  _79
REMARK   33  A    between atoms: _79  and  _80
REMARK   34  A    between atoms: _80  and  _81
REMARK   35  A    between atoms: _90  and  _92
REMARK   36  A    between atoms: _92  and  _93
REMARK   37  A    between atoms: _92  and  _95
REMARK   38  A    between atoms: _95  and  _96
REMARK   39  A    between atoms: _99  and  _101
REMARK   40  A    between atoms: _101  and  _102
REMARK   41  A    between atoms: _101  and  _104
REMARK   42  A    between atoms: _104  and  _105
REMARK   43  A    between atoms: _110  and  _112
REMARK   44  A    between atoms: _112  and  _113
REMARK   45  A    between atoms: _112  and  _115
REMARK   46  A    between atoms: _115  and  _116
REMARK   47  A    between atoms: _119  and  _121
REMARK   48  A    between atoms: _121  and  _122
REMARK   49  A    between atoms: _121  and  _124
REMARK   50  A    between atoms: _124  and  _125
REMARK   51  A    between atoms: _128  and  _130
REMARK   52  A    between atoms: _130  and  _131
REMARK   53  A    between atoms: _130  and  _133
REMARK   54  A    between atoms: _133  and  _134
REMARK   55  A    between atoms: _139  and  _141
REMARK   56  A    between atoms: _141  and  _142
REMARK   57  A    between atoms: _141  and  _144
REMARK   58  A    between atoms: _144  and  _145
REMARK   59  A    between atoms: _148  and  _150
REMARK   60  A    between atoms: _150  and  _151
REMARK   61  A    between atoms: _150  and  _153
REMARK   62  A    between atoms: _153  and  _154
REMARK   63  A    between atoms: _157  and  _159
REMARK   64  A    between atoms: _159  and  _160
REMARK   65  A    between atoms: _162  and  _164
REMARK   66  A    between atoms: _164  and  _165
REMARK   67  A    between atoms: _168  and  _170
REMARK   68  A    between atoms: _170  and  _171
REMARK   69  A    between atoms: _173  and  _175
REMARK   70  A    between atoms: _175  and  _176
REMARK   71  A    between atoms: _179  and  _181
REMARK   72  A    between atoms: _181  and  _182
REMARK   73  A    between atoms: _181  and  _184
REMARK   74  A    between atoms: _184  and  _185
REMARK   75  A    between atoms: _185  and  _186
REMARK   76  A    between atoms: _186  and  _187
REMARK   77  A    between atoms: _187  and  _188
REMARK   78  A    between atoms: _193  and  _194
REMARK   79  A    between atoms: _199  and  _201
REMARK   80  A    between atoms: _201  and  _202
REMARK   81  A    between atoms: _201  and  _204
REMARK   82  A    between atoms: _207  and  _209
REMARK   83  A    between atoms: _209  and  _210
REMARK   84  A    between atoms: _212  and  _214
REMARK   85  A    between atoms: _214  and  _215
REMARK   86  A    between atoms: _214  and  _217
REMARK   87  A    between atoms: _217  and  _218
REMARK   88  A    between atoms: _220  and  _222
REMARK   89  A    between atoms: _222  and  _223
REMARK   90  A    between atoms: _226  and  _228
REMARK   91  A    between atoms: _228  and  _229
REMARK   92  A    between atoms: _231  and  _233
REMARK   93  A    between atoms: _233  and  _234
REMARK   94  A    between atoms: _233  and  _236
REMARK   95  A    between atoms: _236  and  _237
REMARK   96  A    between atoms: _240  and  _242
REMARK   97  A    between atoms: _242  and  _243
REMARK   98  A    between atoms: _245  and  _247
REMARK   99  A    between atoms: _247  and  _248
REMARK  100  A    between atoms: _250  and  _252
REMARK  101  A    between atoms: _252  and  _253
REMARK  102  A    between atoms: _255  and  _257
REMARK  103  A    between atoms: _257  and  _258
REMARK  104  A    between atoms: _257  and  _260
REMARK  105  A    between atoms: _260  and  _261
REMARK  106  A    between atoms: _264  and  _266
REMARK  107  A    between atoms: _266  and  _267
REMARK  108  A    between atoms: _269  and  _271
REMARK  109  A    between atoms: _271  and  _272
REMARK  110  A    between atoms: _271  and  _274
REMARK  111  A    between atoms: _274  and  _275
REMARK  112  A    between atoms: _278  and  _280
REMARK  113  A    between atoms: _280  and  _281
REMARK  114  A    between atoms: _283  and  _285
REMARK  115  A    between atoms: _285  and  _286
REMARK  116  A    between atoms: _289  and  _291
REMARK  117  A    between atoms: _291  and  _292
REMARK  118  A    between atoms: _295  and  _297
REMARK  119  A    between atoms: _297  and  _298
REMARK  120  A    between atoms: _297  and  _300
REMARK  121  A    between atoms: _300  and  _301
REMARK  122  A    between atoms: _304  and  _306
REMARK  123  A    between atoms: _306  and  _307
REMARK  124  A    between atoms: _306  and  _309
REMARK  125  A    between atoms: _309  and  _310
REMARK  126  A    between atoms: _314  and  _315
REMARK  127  A    between atoms: _320  and  _322
REMARK  128  A    between atoms: _322  and  _323
REMARK  129  A    between atoms: _322  and  _325
REMARK  130  A    between atoms: _325  and  _326
REMARK  131  A    between atoms: _332  and  _334
REMARK  132  A    between atoms: _334  and  _335
REMARK  133  A    between atoms: _334  and  _337
REMARK  134  A    between atoms: _337  and  _338
REMARK  135  A    between atoms: _344  and  _346
REMARK  136  A    between atoms: _346  and  _347
REMARK  137  A    between atoms: _346  and  _349
REMARK  138  A    between atoms: _349  and  _350
REMARK  139  A    between atoms: _350  and  _351
REMARK  140  A    between atoms: _354  and  _356
REMARK  141  A    between atoms: _356  and  _357
REMARK  142  A    between atoms: _356  and  _359
REMARK  143  A    between atoms: _359  and  _360
REMARK  144  A    between atoms: _360  and  _361
REMARK  145  A    between atoms: _361  and  _362
REMARK  146  A    between atoms: _362  and  _363
REMARK  147  A    between atoms: _367  and  _369
REMARK  148  A    between atoms: _369  and  _370
REMARK  149  A    between atoms: _369  and  _372
REMARK  150  A    between atoms: _372  and  _373
REMARK  151  A    between atoms: _373  and  _374
REMARK  152  A    between atoms: _376  and  _378
REMARK  153  A    between atoms: _378  and  _379
REMARK  154  A    between atoms: _378  and  _381
REMARK  155  A    between atoms: _381  and  _382
REMARK  156  A    between atoms: _382  and  _383
REMARK  157  A    between atoms: _383  and  _384
REMARK  158  A    between atoms: _384  and  _385
REMARK  159  A    between atoms: _389  and  _391
REMARK  160  A    between atoms: _391  and  _392
REMARK  161  A    between atoms: _395  and  _397
REMARK  162  A    between atoms: _397  and  _398
REMARK  163  A    between atoms: _397  and  _400
REMARK  164  A    between atoms: _400  and  _401
REMARK  165  A    between atoms: _406  and  _408
REMARK  166  A    between atoms: _408  and  _409
REMARK  167  A    between atoms: _408  and  _411
REMARK  168  A    between atoms: _411  and  _412
REMARK  169  A    between atoms: _415  and  _417
REMARK  170  A    between atoms: _417  and  _418
REMARK  171  A    between atoms: _417  and  _420
REMARK  172  A    between atoms: _420  and  _421
REMARK  173  A    between atoms: _424  and  _426
REMARK  174  A    between atoms: _426  and  _427
REMARK  175  A    between atoms: _426  and  _429
REMARK  176  A    between atoms: _429  and  _430
REMARK  177  A    between atoms: _430  and  _431
REMARK  178  A    between atoms: _431  and  _432
REMARK  179  A    between atoms: _432  and  _433
REMARK  180  A    between atoms: _437  and  _439
REMARK  181  A    between atoms: _439  and  _440
REMARK  182  A    between atoms: _443  and  _445
REMARK  183  A    between atoms: _445  and  _446
REMARK  184  A    between atoms: _445  and  _448
REMARK  185  A    between atoms: _448  and  _449
REMARK  186  A    between atoms: _455  and  _457
REMARK  187  A    between atoms: _457  and  _458
REMARK  188  A    between atoms: _457  and  _460
REMARK  189  A    between atoms: _461  and  _462
REMARK  190  A    between atoms: _462  and  _463
REMARK  191  A    between atoms: _463  and  _464
REMARK  192  A    between atoms: _468  and  _470
REMARK  193  A    between atoms: _470  and  _471
REMARK  194  A    between atoms: _470  and  _473
REMARK  195  A    between atoms: _474  and  _475
REMARK  196  A    between atoms: _478  and  _480
REMARK  197  A    between atoms: _480  and  _481
REMARK  198  A    between atoms: _480  and  _483
REMARK  199  A    between atoms: _486  and  _488
REMARK  200  A    between atoms: _488  and  _489
REMARK  201  A    between atoms: _488  and  _491
REMARK  202  A    between atoms: _491  and  _492
REMARK  203  A    between atoms: _495  and  _497
REMARK  204  A    between atoms: _497  and  _498
REMARK  205  A    between atoms: _497  and  _500
REMARK  206  A    between atoms: _500  and  _501
REMARK  207  A    between atoms: _503  and  _505
REMARK  208  A    between atoms: _505  and  _506
REMARK  209  A    between atoms: _505  and  _508
REMARK  210  A    between atoms: _511  and  _513
REMARK  211  A    between atoms: _513  and  _514
REMARK  212  A    between atoms: _513  and  _516
REMARK  213  A    between atoms: _516  and  _517
REMARK  214  A    between atoms: _520  and  _522
REMARK  215  A    between atoms: _522  and  _523
REMARK  216  A    between atoms: _522  and  _525
REMARK  217  A    between atoms: _525  and  _526
REMARK                            x       y       z     vdW  Elec       q    Type
REMARK                         _______ _______ _______ _____ _____    ______ ____
ROOT
ATOM      1  C   GLY A   4     -14.509  -3.778   4.682  0.00  0.00    +0.243 C 
ATOM      2  N   ALA A   5     -13.322  -4.080   5.206  0.00  0.00    -0.297 N 
ATOM      3  H   ALA A   5     -12.610  -3.327   5.288  0.00  0.00    +0.150 HD
ATOM      4  O   GLY A   4     -15.383  -4.619   4.486  0.00  0.00    -0.273 OA
ENDROOT
BRANCH   2   5
ATOM      5  CA  ALA A   5     -12.972  -5.431   5.674  0.00  0.00    +0.149 C 
ATOM      6  CB  ALA A   5     -14.018  -5.967   6.731  0.00  0.00    +0.031 C 
BRANCH   5   7
ATOM      7  C   ALA A   5     -12.816  -6.409   4.524  0.00  0.00    +0.241 C 
ATOM      8  O   ALA A   5     -12.756  -7.632   4.741  0.00  0.00    -0.273 OA
ATOM      9  N   LYS A   6     -12.634  -5.932   3.298  0.00  0.00    -0.297 N 
ATOM     10  H   LYS A   6     -12.592  -4.902   3.160  0.00  0.00    +0.150 HD
BRANCH   9  11
ATOM     11  CA  LYS A   6     -12.492  -6.802   2.142  0.00  0.00    +0.149 C 
BRANCH  11  12
ATOM     12  C   LYS A   6     -11.041  -6.789   1.650  0.00  0.00    +0.244 C 
ATOM     13  N   PRO A   7     -10.288  -7.869   1.895  0.00  0.00    -0.273 N 
ATOM     14  CD  PRO A   7     -10.615  -9.046   2.712  0.00  0.00    +0.094 C 
ATOM     15  CG  PRO A   7      -9.278  -9.545   3.136  0.00  0.00    +0.024 C 
ATOM     16  CB  PRO A   7      -8.418  -9.300   1.856  0.00  0.00    +0.030 C 
ATOM     17  CA  PRO A   7      -8.897  -7.917   1.407  0.00  0.00    +0.140 C 
ATOM     18  O   LYS A   6     -10.605  -5.808   1.054  0.00  0.00    -0.273 OA
BRANCH  17  19
ATOM     19  C   PRO A   7      -8.756  -7.647  -0.103  0.00  0.00    +0.227 C 
ATOM     20  O   PRO A   7      -7.758  -7.075  -0.507  0.00  0.00    -0.286 OA
ENDBRANCH  17  19
ENDBRANCH  11  12
BRANCH  11  21
ATOM     21  CB  LYS A   6     -13.383  -6.278   1.023  0.00  0.00    +0.029 C 
BRANCH  21  22
ATOM     22  CG  LYS A   6     -14.877  -6.234   1.363  0.00  0.00    +0.000 C 
BRANCH  22  23
ATOM     23  CD  LYS A   6     -15.675  -5.849   0.109  0.00  0.00    -0.024 C 
BRANCH  23  24
ATOM     24  CE  LYS A   6     -15.982  -7.091  -0.718  0.00  0.00    -0.086 C 
BRANCH  24  25
ATOM     25  NZ  LYS A   6     -16.353  -6.765  -2.136  0.00  0.00    +0.380 N 
ATOM     26  HZ1 LYS A   6     -17.199  -6.160  -2.141  0.00  0.00    -0.089 HD
ATOM     27  HZ2 LYS A   6     -15.565  -6.264  -2.593  0.00  0.00    -0.089 HD
ATOM     28  HZ3 LYS A   6     -16.551  -7.646  -2.652  0.00  0.00    -0.089 HD
ENDBRANCH  24  25
ENDBRANCH  23  24
ENDBRANCH  22  23
ENDBRANCH  21  22
ENDBRANCH  11  21
ENDBRANCH   9  11
ENDBRANCH   5   7
ENDBRANCH   2   5
BRANCH   1  29
ATOM     29  CA  GLY A   4     -14.751  -2.361   4.315  0.00  0.00    +0.176 C 
BRANCH  29  31
ATOM     30  C   ALA A   3     -12.830  -2.033   2.867  0.00  0.00    +0.241 C 
ATOM     31  N   GLY A   4     -13.525  -1.649   3.934  0.00  0.00    -0.295 N 
ATOM     32  H   GLY A   4     -13.198  -0.841   4.501  0.00  0.00    +0.150 HD
ATOM     33  O   ALA A   3     -13.045  -3.108   2.279  0.00  0.00    -0.273 OA
BRANCH  30  34
ATOM     34  CA  ALA A   3     -11.654  -1.135   2.419  0.00  0.00    +0.149 C 
ATOM     35  CB  ALA A   3     -10.411  -1.971   2.230  0.00  0.00    +0.031 C 
BRANCH  34  37
ATOM     36  C   GLY A   2     -11.830   1.228   3.022  0.00  0.00    +0.243 C 
ATOM     37  N   ALA A   3     -11.407  -0.018   3.299  0.00  0.00    -0.297 N 
ATOM     38  H   ALA A   3     -10.882  -0.183   4.181  0.00  0.00    +0.150 HD
ATOM     39  O   GLY A   2     -12.573   1.488   2.088  0.00  0.00    -0.273 OA
BRANCH  36  40
ATOM     40  CA  GLY A   2     -11.340   2.306   3.958  0.00  0.00    +0.176 C 
BRANCH  40  43
ATOM     41  C   LEU A   1     -12.899   4.172   3.838  0.00  0.00    +0.238 C 
ATOM     42  O   LEU A   1     -13.671   3.601   4.591  0.00  0.00    -0.274 OA
ATOM     43  N   GLY A   2     -11.724   3.637   3.506  0.00  0.00    -0.296 N 
ATOM     44  H   GLY A   2     -11.067   4.181   2.911  0.00  0.00    +0.150 HD
BRANCH  41  45
ATOM     45  CA  LEU A   1     -13.213   5.578   3.355  0.00  0.00    +0.145 C 
BRANCH  45  46
ATOM     46  N   LEU A   1     -12.331   6.061   2.286  0.00  0.00    -0.238 NA
ATOM     47  H   LEU A   1     -12.426   5.653   1.334  0.00  0.00    +0.142 HD
ENDBRANCH  45  46
BRANCH  45  48
ATOM     48  CB  LEU A   1     -14.702   5.668   2.939  0.00  0.00    +0.026 C 
BRANCH  48  49
ATOM     49  CG  LEU A   1     -15.199   7.075   2.620  0.00  0.00    +0.002 C 
ATOM     50  CD2 LEU A   1     -15.119   7.947   3.859  0.00  0.00    +0.000 C 
ATOM     51  CD1 LEU A   1     -16.608   7.067   2.019  0.00  0.00    +0.000 C 
ENDBRANCH  48  49
ENDBRANCH  45  48
ENDBRANCH  41  45
ENDBRANCH  40  43
ENDBRANCH  36  40
ENDBRANCH  34  37
ENDBRANCH  30  34
ENDBRANCH  29  31
ENDBRANCH   1  29
TORSDOF 20
REMARK  Name = ../refined-set-2016/2r75/2r75_pocket.pdb
REMARK  217 active torsions:
REMARK  status: ('A' for Active; 'I' for Inactive)
REMARK    1  A    between atoms: _1  and  _3
REMARK    2  A    between atoms: _3  and  _4
REMARK    3  A    between atoms: _3  and  _6
REMARK    4  A    between atoms: _9  and  _11
REMARK    5  A    between atoms: _11  and  _12
REMARK    6  A    between atoms: _14  and  _16
REMARK    7  A    between atoms: _16  and  _17
REMARK    8  A    between atoms: _19  and  _21
REMARK    9  A    between atoms: _21  and  _22
REMARK   10  A    between atoms: _24  and  _26
REMARK   11  A    between atoms: _26  and  _27
REMARK   12  A    between atoms: _29  and  _31
REMARK   13  A    between atoms: _31  and  _32
REMARK   14  A    between atoms: _31  and  _34
REMARK   15  A    between atoms: _34  and  _35
REMARK   16  A    between atoms: _37  and  _39
REMARK   17  A    between atoms: _39  and  _40
REMARK   18  A    between atoms: _39  and  _42
REMARK   19  A    between atoms: _42  and  _43
REMARK   20  A    between atoms: _48  and  _50
REMARK   21  A    between atoms: _50  and  _51
REMARK   22  A    between atoms: _54  and  _56
REMARK   23  A    between atoms: _56  and  _57
REMARK   24  A    between atoms: _56  and  _59
REMARK   25  A    between atoms: _62  and  _64
REMARK   26  A    between atoms: _64  and  _65
REMARK   27  A    between atoms: _64  and  _67
REMARK   28  A    between atoms: _67  and  _68
REMARK   29  A    between atoms: _73  and  _75
REMARK   30  A    between atoms: _75  and  _76
REMARK   31  A    between atoms: _75  and  _78
REMARK   32  A    between atoms: _78  and  _79
REMARK   33  A    between atoms: _79  and  _80
REMARK   34  A    between atoms: _80  and  _81
REMARK   35  A    between atoms: _90  and  _92
REMARK   36  A    between atoms: _92  and  _93
REMARK   37  A    between atoms: _92  and  _95
REMARK   38  A    between atoms: _95  and  _96
REMARK   39  A    between atoms: _99  and  _101
REMARK   40  A    between atoms: _101  and  _102
REMARK   41  A    between atoms: _101  and  _104
REMARK   42  A    between atoms: _104  and  _105
REMARK   43  A    between atoms: _110  and  _112
REMARK   44  A    between atoms: _112  and  _113
REMARK   45  A    between atoms: _112  and  _115
REMARK   46  A    between atoms: _115  and  _116
REMARK   47  A    between atoms: _119  and  _121
REMARK   48  A    between atoms: _121  and  _122
REMARK   49  A    between atoms: _121  and  _124
REMARK   50  A    between atoms: _124  and  _125
REMARK   51  A    between atoms: _128  and  _130
REMARK   52  A    between atoms: _130  and  _131
REMARK   53  A    between atoms: _130  and  _133
REMARK   54  A    between atoms: _133  and  _134
REMARK   55  A    between atoms: _139  and  _141
REMARK   56  A    between atoms: _141  and  _142
REMARK   57  A    between atoms: _141  and  _144
REMARK   58  A    between atoms: _144  and  _145
REMARK   59  A    between atoms: _148  and  _150
REMARK   60  A    between atoms: _150  and  _151
REMARK   61  A    between atoms: _150  and  _153
REMARK   62  A    between atoms: _153  and  _154
REMARK   63  A    between atoms: _157  and  _159
REMARK   64  A    between atoms: _159  and  _160
REMARK   65  A    between atoms: _162  and  _164
REMARK   66  A    between atoms: _164  and  _165
REMARK   67  A    between atoms: _168  and  _170
REMARK   68  A    between atoms: _170  and  _171
REMARK   69  A    between atoms: _173  and  _175
REMARK   70  A    between atoms: _175  and  _176
REMARK   71  A    between atoms: _179  and  _181
REMARK   72  A    between atoms: _181  and  _182
REMARK   73  A    between atoms: _181  and  _184
REMARK   74  A    between atoms: _184  and  _185
REMARK   75  A    between atoms: _185  and  _186
REMARK   76  A    between atoms: _186  and  _187
REMARK   77  A    between atoms: _187  and  _188
REMARK   78  A    between atoms: _193  and  _194
REMARK   79  A    between atoms: _199  and  _201
REMARK   80  A    between atoms: _201  and  _202
REMARK   81  A    between atoms: _201  and  _204
REMARK   82  A    between atoms: _207  and  _209
REMARK   83  A    between atoms: _209  and  _210
REMARK   84  A    between atoms: _212  and  _214
REMARK   85  A    between atoms: _214  and  _215
REMARK   86  A    between atoms: _214  and  _217
REMARK   87  A    between atoms: _217  and  _218
REMARK   88  A    between atoms: _220  and  _222
REMARK   89  A    between atoms: _222  and  _223
REMARK   90  A    between atoms: _226  and  _228
REMARK   91  A    between atoms: _228  and  _229
REMARK   92  A    between atoms: _231  and  _233
REMARK   93  A    between atoms: _233  and  _234
REMARK   94  A    between atoms: _233  and  _236
REMARK   95  A    between atoms: _236  and  _237
REMARK   96  A    between atoms: _240  and  _242
REMARK   97  A    between atoms: _242  and  _243
REMARK   98  A    between atoms: _245  and  _247
REMARK   99  A    between atoms: _247  and  _248
REMARK  100  A    between atoms: _250  and  _252
REMARK  101  A    between atoms: _252  and  _253
REMARK  102  A    between atoms: _255  and  _257
REMARK  103  A    between atoms: _257  and  _258
REMARK  104  A    between atoms: _257  and  _260
REMARK  105  A    between atoms: _260  and  _261
REMARK  106  A    between atoms: _264  and  _266
REMARK  107  A    between atoms: _266  and  _267
REMARK  108  A    between atoms: _269  and  _271
REMARK  109  A    between atoms: _271  and  _272
REMARK  110  A    between atoms: _271  and  _274
REMARK  111  A    between atoms: _274  and  _275
REMARK  112  A    between atoms: _278  and  _280
REMARK  113  A    between atoms: _280  and  _281
REMARK  114  A    between atoms: _283  and  _285
REMARK  115  A    between atoms: _285  and  _286
REMARK  116  A    between atoms: _289  and  _291
REMARK  117  A    between atoms: _291  and  _292
REMARK  118  A    between atoms: _295  and  _297
REMARK  119  A    between atoms: _297  and  _298
REMARK  120  A    between atoms: _297  and  _300
REMARK  121  A    between atoms: _300  and  _301
REMARK  122  A    between atoms: _304  and  _306
REMARK  123  A    between atoms: _306  and  _307
REMARK  124  A    between atoms: _306  and  _309
REMARK  125  A    between atoms: _309  and  _310
REMARK  126  A    between atoms: _314  and  _315
REMARK  127  A    between atoms: _320  and  _322
REMARK  128  A    between atoms: _322  and  _323
REMARK  129  A    between atoms: _322  and  _325
REMARK  130  A    between atoms: _325  and  _326
REMARK  131  A    between atoms: _332  and  _334
REMARK  132  A    between atoms: _334  and  _335
REMARK  133  A    between atoms: _334  and  _337
REMARK  134  A    between atoms: _337  and  _338
REMARK  135  A    between atoms: _344  and  _346
REMARK  136  A    between atoms: _346  and  _347
REMARK  137  A    between atoms: _346  and  _349
REMARK  138  A    between atoms: _349  and  _350
REMARK  139  A    between atoms: _350  and  _351
REMARK  140  A    between atoms: _354  and  _356
REMARK  141  A    between atoms: _356  and  _357
REMARK  142  A    between atoms: _356  and  _359
REMARK  143  A    between atoms: _359  and  _360
REMARK  144  A    between atoms: _360  and  _361
REMARK  145  A    between atoms: _361  and  _362
REMARK  146  A    between atoms: _362  and  _363
REMARK  147  A    between atoms: _367  and  _369
REMARK  148  A    between atoms: _369  and  _370
REMARK  149  A    between atoms: _369  and  _372
REMARK  150  A    between atoms: _372  and  _373
REMARK  151  A    between atoms: _373  and  _374
REMARK  152  A    between atoms: _376  and  _378
REMARK  153  A    between atoms: _378  and  _379
REMARK  154  A    between atoms: _378  and  _381
REMARK  155  A    between atoms: _381  and  _382
REMARK  156  A    between atoms: _382  and  _383
REMARK  157  A    between atoms: _383  and  _384
REMARK  158  A    between atoms: _384  and  _385
REMARK  159  A    between atoms: _389  and  _391
REMARK  160  A    between atoms: _391  and  _392
REMARK  161  A    between atoms: _395  and  _397
REMARK  162  A    between atoms: _397  and  _398
REMARK  163  A    between atoms: _397  and  _400
REMARK  164  A    between atoms: _400  and  _401
REMARK  165  A    between atoms: _406  and  _408
REMARK  166  A    between atoms: _408  and  _409
REMARK  167  A    between atoms: _408  and  _411
REMARK  168  A    between atoms: _411  and  _412
REMARK  169  A    between atoms: _415  and  _417
REMARK  170  A    between atoms: _417  and  _418
REMARK  171  A    between atoms: _417  and  _420
REMARK  172  A    between atoms: _420  and  _421
REMARK  173  A    between atoms: _424  and  _426
REMARK  174  A    between atoms: _426  and  _427
REMARK  175  A    between atoms: _426  and  _429
REMARK  176  A    between atoms: _429  and  _430
REMARK  177  A    between atoms: _430  and  _431
REMARK  178  A    between atoms: _431  and  _432
REMARK  179  A    between atoms: _432  and  _433
REMARK  180  A    between atoms: _437  and  _439
REMARK  181  A    between atoms: _439  and  _440
REMARK  182  A    between atoms: _443  and  _445
REMARK  183  A    between atoms: _445  and  _446
REMARK  184  A    between atoms: _445  and  _448
REMARK  185  A    between atoms: _448  and  _449
REMARK  186  A    between atoms: _455  and  _457
REMARK  187  A    between atoms: _457  and  _458
REMARK  188  A    between atoms: _457  and  _460
REMARK  189  A    between atoms: _461  and  _462
REMARK  190  A    between atoms: _462  and  _463
REMARK  191  A    between atoms: _463  and  _464
REMARK  192  A    between atoms: _468  and  _470
REMARK  193  A    between atoms: _470  and  _471
REMARK  194  A    between atoms: _470  and  _473
REMARK  195  A    between atoms: _474  and  _475
REMARK  196  A    between atoms: _478  and  _480
REMARK  197  A    between atoms: _480  and  _481
REMARK  198  A    between atoms: _480  and  _483
REMARK  199  A    between atoms: _486  and  _488
REMARK  200  A    between atoms: _488  and  _489
REMARK  201  A    between atoms: _488  and  _491
REMARK  202  A    between atoms: _491  and  _492
REMARK  203  A    between atoms: _495  and  _497
REMARK  204  A    between atoms: _497  and  _498
REMARK  205  A    between atoms: _497  and  _500
REMARK  206  A    between atoms: _500  and  _501
REMARK  207  A    between atoms: _503  and  _505
REMARK  208  A    between atoms: _505  and  _506
REMARK  209  A    between atoms: _505  and  _508
REMARK  210  A    between atoms: _511  and  _513
REMARK  211  A    between atoms: _513  and  _514
REMARK  212  A    between atoms: _513  and  _516
REMARK  213  A    between atoms: _516  and  _517
REMARK  214  A    between atoms: _520  and  _522
REMARK  215  A    between atoms: _522  and  _523
REMARK  216  A    between atoms: _522  and  _525
REMARK  217  A    between atoms: _525  and  _526
REMARK                            x       y       z     vdW  Elec       q    Type
REMARK                         _______ _______ _______ _____ _____    ______ ____
ROOT
ATOM      1  C   VAL A   1      -8.932  -3.482  -1.610  0.00  0.00    +0.238 C 
ATOM      2  N   GLY A   2      -8.373  -4.000  -0.507  0.00  0.00    -0.297 N 
ATOM      3  H   GLY A   2      -8.893  -4.700   0.061  0.00  0.00    +0.150 HD
ATOM      4  O   VAL A   1      -8.367  -2.606  -2.270  0.00  0.00    -0.274 OA
ENDROOT
BRANCH   1   5
ATOM      5  CA  VAL A   1     -10.265  -4.070  -2.099  0.00  0.00    +0.145 C 
BRANCH   5   6
ATOM      6  CB  VAL A   1     -11.472  -3.440  -1.408  0.00  0.00    +0.025 C 
ATOM      7  CG2 VAL A   1     -11.383  -1.887  -1.392  0.00  0.00    +0.002 C 
ATOM      8  CG1 VAL A   1     -12.828  -3.937  -2.057  0.00  0.00    +0.002 C 
ENDBRANCH   5   6
BRANCH   5   9
ATOM      9  N   VAL A   1     -10.288  -5.540  -1.886  0.00  0.00    -0.238 NA
ATOM     10  H   VAL A   1     -10.899  -5.941  -1.146  0.00  0.00    +0.142 HD
ENDBRANCH   5   9
ENDBRANCH   1   5
BRANCH   2  11
ATOM     11  CA  GLY A   2      -7.035  -3.581  -0.104  0.00  0.00    +0.163 C 
BRANCH  11  12
ATOM     12  C   GLY A   2      -5.991  -3.893  -1.163  0.00  0.00    +0.229 C 
ATOM     13  O   GLY A   2      -5.083  -3.120  -1.417  0.00  0.00    -0.286 OA
ENDBRANCH  11  12
ENDBRANCH   2  11
TORSDOF 5
REMARK  Name = ../refined-set-2016/2r75/2r75_pocket.pdb
REMARK  217 active torsions:
REMARK  status: ('A' for Active; 'I' for Inactive)
REMARK    1  A    between atoms: _1  and  _3
REMARK    2  A    between atoms: _3  and  _4
REMARK    3  A    between atoms: _3  and  _6
REMARK    4  A    between atoms: _9  and  _11
REMARK    5  A    between atoms: _11  and  _12
REMARK    6  A    between atoms: _14  and  _16
REMARK    7  A    between atoms: _16  and  _17
REMARK    8  A    between atoms: _19  and  _21
REMARK    9  A    between atoms: _21  and  _22
REMARK   10  A    between atoms: _24  and  _26
REMARK   11  A    between atoms: _26  and  _27
REMARK   12  A    between atoms: _29  and  _31
REMARK   13  A    between atoms: _31  and  _32
REMARK   14  A    between atoms: _31  and  _34
REMARK   15  A    between atoms: _34  and  _35
REMARK   16  A    between atoms: _37  and  _39
REMARK   17  A    between atoms: _39  and  _40
REMARK   18  A    between atoms: _39  and  _42
REMARK   19  A    between atoms: _42  and  _43
REMARK   20  A    between atoms: _48  and  _50
REMARK   21  A    between atoms: _50  and  _51
REMARK   22  A    between atoms: _54  and  _56
REMARK   23  A    between atoms: _56  and  _57
REMARK   24  A    between atoms: _56  and  _59
REMARK   25  A    between atoms: _62  and  _64
REMARK   26  A    between atoms: _64  and  _65
REMARK   27  A    between atoms: _64  and  _67
REMARK   28  A    between atoms: _67  and  _68
REMARK   29  A    between atoms: _73  and  _75
REMARK   30  A    between atoms: _75  and  _76
REMARK   31  A    between atoms: _75  and  _78
REMARK   32  A    between atoms: _78  and  _79
REMARK   33  A    between atoms: _79  and  _80
REMARK   34  A    between atoms: _80  and  _81
REMARK   35  A    between atoms: _90  and  _92
REMARK   36  A    between atoms: _92  and  _93
REMARK   37  A    between atoms: _92  and  _95
REMARK   38  A    between atoms: _95  and  _96
REMARK   39  A    between atoms: _99  and  _101
REMARK   40  A    between atoms: _101  and  _102
REMARK   41  A    between atoms: _101  and  _104
REMARK   42  A    between atoms: _104  and  _105
REMARK   43  A    between atoms: _110  and  _112
REMARK   44  A    between atoms: _112  and  _113
REMARK   45  A    between atoms: _112  and  _115
REMARK   46  A    between atoms: _115  and  _116
REMARK   47  A    between atoms: _119  and  _121
REMARK   48  A    between atoms: _121  and  _122
REMARK   49  A    between atoms: _121  and  _124
REMARK   50  A    between atoms: _124  and  _125
REMARK   51  A    between atoms: _128  and  _130
REMARK   52  A    between atoms: _130  and  _131
REMARK   53  A    between atoms: _130  and  _133
REMARK   54  A    between atoms: _133  and  _134
REMARK   55  A    between atoms: _139  and  _141
REMARK   56  A    between atoms: _141  and  _142
REMARK   57  A    between atoms: _141  and  _144
REMARK   58  A    between atoms: _144  and  _145
REMARK   59  A    between atoms: _148  and  _150
REMARK   60  A    between atoms: _150  and  _151
REMARK   61  A    between atoms: _150  and  _153
REMARK   62  A    between atoms: _153  and  _154
REMARK   63  A    between atoms: _157  and  _159
REMARK   64  A    between atoms: _159  and  _160
REMARK   65  A    between atoms: _162  and  _164
REMARK   66  A    between atoms: _164  and  _165
REMARK   67  A    between atoms: _168  and  _170
REMARK   68  A    between atoms: _170  and  _171
REMARK   69  A    between atoms: _173  and  _175
REMARK   70  A    between atoms: _175  and  _176
REMARK   71  A    between atoms: _179  and  _181
REMARK   72  A    between atoms: _181  and  _182
REMARK   73  A    between atoms: _181  and  _184
REMARK   74  A    between atoms: _184  and  _185
REMARK   75  A    between atoms: _185  and  _186
REMARK   76  A    between atoms: _186  and  _187
REMARK   77  A    between atoms: _187  and  _188
REMARK   78  A    between atoms: _193  and  _194
REMARK   79  A    between atoms: _199  and  _201
REMARK   80  A    between atoms: _201  and  _202
REMARK   81  A    between atoms: _201  and  _204
REMARK   82  A    between atoms: _207  and  _209
REMARK   83  A    between atoms: _209  and  _210
REMARK   84  A    between atoms: _212  and  _214
REMARK   85  A    between atoms: _214  and  _215
REMARK   86  A    between atoms: _214  and  _217
REMARK   87  A    between atoms: _217  and  _218
REMARK   88  A    between atoms: _220  and  _222
REMARK   89  A    between atoms: _222  and  _223
REMARK   90  A    between atoms: _226  and  _228
REMARK   91  A    between atoms: _228  and  _229
REMARK   92  A    between atoms: _231  and  _233
REMARK   93  A    between atoms: _233  and  _234
REMARK   94  A    between atoms: _233  and  _236
REMARK   95  A    between atoms: _236  and  _237
REMARK   96  A    between atoms: _240  and  _242
REMARK   97  A    between atoms: _242  and  _243
REMARK   98  A    between atoms: _245  and  _247
REMARK   99  A    between atoms: _247  and  _248
REMARK  100  A    between atoms: _250  and  _252
REMARK  101  A    between atoms: _252  and  _253
REMARK  102  A    between atoms: _255  and  _257
REMARK  103  A    between atoms: _257  and  _258
REMARK  104  A    between atoms: _257  and  _260
REMARK  105  A    between atoms: _260  and  _261
REMARK  106  A    between atoms: _264  and  _266
REMARK  107  A    between atoms: _266  and  _267
REMARK  108  A    between atoms: _269  and  _271
REMARK  109  A    between atoms: _271  and  _272
REMARK  110  A    between atoms: _271  and  _274
REMARK  111  A    between atoms: _274  and  _275
REMARK  112  A    between atoms: _278  and  _280
REMARK  113  A    between atoms: _280  and  _281
REMARK  114  A    between atoms: _283  and  _285
REMARK  115  A    between atoms: _285  and  _286
REMARK  116  A    between atoms: _289  and  _291
REMARK  117  A    between atoms: _291  and  _292
REMARK  118  A    between atoms: _295  and  _297
REMARK  119  A    between atoms: _297  and  _298
REMARK  120  A    between atoms: _297  and  _300
REMARK  121  A    between atoms: _300  and  _301
REMARK  122  A    between atoms: _304  and  _306
REMARK  123  A    between atoms: _306  and  _307
REMARK  124  A    between atoms: _306  and  _309
REMARK  125  A    between atoms: _309  and  _310
REMARK  126  A    between atoms: _314  and  _315
REMARK  127  A    between atoms: _320  and  _322
REMARK  128  A    between atoms: _322  and  _323
REMARK  129  A    between atoms: _322  and  _325
REMARK  130  A    between atoms: _325  and  _326
REMARK  131  A    between atoms: _332  and  _334
REMARK  132  A    between atoms: _334  and  _335
REMARK  133  A    between atoms: _334  and  _337
REMARK  134  A    between atoms: _337  and  _338
REMARK  135  A    between atoms: _344  and  _346
REMARK  136  A    between atoms: _346  and  _347
REMARK  137  A    between atoms: _346  and  _349
REMARK  138  A    between atoms: _349  and  _350
REMARK  139  A    between atoms: _350  and  _351
REMARK  140  A    between atoms: _354  and  _356
REMARK  141  A    between atoms: _356  and  _357
REMARK  142  A    between atoms: _356  and  _359
REMARK  143  A    between atoms: _359  and  _360
REMARK  144  A    between atoms: _360  and  _361
REMARK  145  A    between atoms: _361  and  _362
REMARK  146  A    between atoms: _362  and  _363
REMARK  147  A    between atoms: _367  and  _369
REMARK  148  A    between atoms: _369  and  _370
REMARK  149  A    between atoms: _369  and  _372
REMARK  150  A    between atoms: _372  and  _373
REMARK  151  A    between atoms: _373  and  _374
REMARK  152  A    between atoms: _376  and  _378
REMARK  153  A    between atoms: _378  and  _379
REMARK  154  A    between atoms: _378  and  _381
REMARK  155  A    between atoms: _381  and  _382
REMARK  156  A    between atoms: _382  and  _383
REMARK  157  A    between atoms: _383  and  _384
REMARK  158  A    between atoms: _384  and  _385
REMARK  159  A    between atoms: _389  and  _391
REMARK  160  A    between atoms: _391  and  _392
REMARK  161  A    between atoms: _395  and  _397
REMARK  162  A    between atoms: _397  and  _398
REMARK  163  A    between atoms: _397  and  _400
REMARK  164  A    between atoms: _400  and  _401
REMARK  165  A    between atoms: _406  and  _408
REMARK  166  A    between atoms: _408  and  _409
REMARK  167  A    between atoms: _408  and  _411
REMARK  168  A    between atoms: _411  and  _412
REMARK  169  A    between atoms: _415  and  _417
REMARK  170  A    between atoms: _417  and  _418
REMARK  171  A    between atoms: _417  and  _420
REMARK  172  A    between atoms: _420  and  _421
REMARK  173  A    between atoms: _424  and  _426
REMARK  174  A    between atoms: _426  and  _427
REMARK  175  A    between atoms: _426  and  _429
REMARK  176  A    between atoms: _429  and  _430
REMARK  177  A    between atoms: _430  and  _431
REMARK  178  A    between atoms: _431  and  _432
REMARK  179  A    between atoms: _432  and  _433
REMARK  180  A    between atoms: _437  and  _439
REMARK  181  A    between atoms: _439  and  _440
REMARK  182  A    between atoms: _443  and  _445
REMARK  183  A    between atoms: _445  and  _446
REMARK  184  A    between atoms: _445  and  _448
REMARK  185  A    between atoms: _448  and  _449
REMARK  186  A    between atoms: _455  and  _457
REMARK  187  A    between atoms: _457  and  _458
REMARK  188  A    between atoms: _457  and  _460
REMARK  189  A    between atoms: _461  and  _462
REMARK  190  A    between atoms: _462  and  _463
REMARK  191  A    between atoms: _463  and  _464
REMARK  192  A    between atoms: _468  and  _470
REMARK  193  A    between atoms: _470  and  _471
REMARK  194  A    between atoms: _470  and  _473
REMARK  195  A    between atoms: _474  and  _475
REMARK  196  A    between atoms: _478  and  _480
REMARK  197  A    between atoms: _480  and  _481
REMARK  198  A    between atoms: _480  and  _483
REMARK  199  A    between atoms: _486  and  _488
REMARK  200  A    between atoms: _488  and  _489
REMARK  201  A    between atoms: _488  and  _491
REMARK  202  A    between atoms: _491  and  _492
REMARK  203  A    between atoms: _495  and  _497
REMARK  204  A    between atoms: _497  and  _498
REMARK  205  A    between atoms: _497  and  _500
REMARK  206  A    between atoms: _500  and  _501
REMARK  207  A    between atoms: _503  and  _505
REMARK  208  A    between atoms: _505  and  _506
REMARK  209  A    between atoms: _505  and  _508
REMARK  210  A    between atoms: _511  and  _513
REMARK  211  A    between atoms: _513  and  _514
REMARK  212  A    between atoms: _513  and  _516
REMARK  213  A    between atoms: _516  and  _517
REMARK  214  A    between atoms: _520  and  _522
REMARK  215  A    between atoms: _522  and  _523
REMARK  216  A    between atoms: _522  and  _525
REMARK  217  A    between atoms: _525  and  _526
REMARK                            x       y       z     vdW  Elec       q    Type
REMARK                         _______ _______ _______ _____ _____    ______ ____
ROOT
ATOM      1  C   GLY A   7      -7.851  -4.736   3.843  0.00  0.00    +0.243 C 
ATOM      2  N   THR A   8      -7.397  -3.653   4.475  0.00  0.00    -0.295 N 
ATOM      3  H   THR A   8      -7.855  -3.332   5.352  0.00  0.00    +0.150 HD
ATOM      4  O   GLY A   7      -7.253  -5.217   2.889  0.00  0.00    -0.273 OA
ENDROOT
BRANCH   2   5
ATOM      5  CA  THR A   8      -6.269  -2.925   3.942  0.00  0.00    +0.176 C 
BRANCH   5   6
ATOM      6  C   THR A   8      -4.948  -3.608   4.294  0.00  0.00    +0.243 C 
ATOM      7  N   GLY A   9      -4.681  -3.850   5.583  0.00  0.00    -0.295 N 
ATOM      8  H   GLY A   9      -5.325  -3.504   6.323  0.00  0.00    +0.150 HD
ATOM      9  O   THR A   8      -4.142  -3.921   3.415  0.00  0.00    -0.273 OA
BRANCH   7  10
ATOM     10  CA  GLY A   9      -3.482  -4.602   5.949  0.00  0.00    +0.176 C 
BRANCH  10  11
ATOM     11  C   GLY A   9      -3.458  -5.955   5.243  0.00  0.00    +0.243 C 
ATOM     12  N   THR A  10      -4.546  -6.711   5.329  0.00  0.00    -0.295 N 
ATOM     13  H   THR A  10      -5.402  -6.346   5.794  0.00  0.00    +0.150 HD
ATOM     14  O   GLY A   9      -2.466  -6.301   4.581  0.00  0.00    -0.273 OA
BRANCH  12  15
ATOM     15  CA  THR A  10      -4.532  -8.055   4.768  0.00  0.00    +0.176 C 
BRANCH  15  16
ATOM     16  C   THR A  10      -4.305  -8.066   3.264  0.00  0.00    +0.243 C 
ATOM     17  O   THR A  10      -3.564  -8.886   2.722  0.00  0.00    -0.273 OA
ATOM     18  N   GLY A  11      -4.991  -7.156   2.576  0.00  0.00    -0.295 N 
ATOM     19  H   GLY A  11      -5.574  -6.460   3.084  0.00  0.00    +0.150 HD
BRANCH  18  20
ATOM     20  CA  GLY A  11      -4.936  -7.123   1.137  0.00  0.00    +0.176 C 
BRANCH  20  21
ATOM     21  C   GLY A  11      -3.744  -6.406   0.544  0.00  0.00    +0.243 C 
ATOM     22  N   ALA A  12      -3.373  -5.261   1.133  0.00  0.00    -0.297 N 
ATOM     23  H   ALA A  12      -3.872  -4.934   1.985  0.00  0.00    +0.150 HD
ATOM     24  O   GLY A  11      -3.182  -6.800  -0.506  0.00  0.00    -0.273 OA
BRANCH  22  25
ATOM     25  CA  ALA A  12      -2.274  -4.469   0.589  0.00  0.00    +0.149 C 
ATOM     26  CB  ALA A  12      -2.439  -2.972   0.890  0.00  0.00    +0.031 C 
BRANCH  25  27
ATOM     27  C   ALA A  12      -0.884  -4.905   1.012  0.00  0.00    +0.241 C 
ATOM     28  N   ALA A  13      -0.738  -5.505   2.197  0.00  0.00    -0.298 N 
ATOM     29  H   ALA A  13      -1.571  -5.718   2.782  0.00  0.00    +0.150 HD
ATOM     30  O   ALA A  12       0.083  -4.725   0.246  0.00  0.00    -0.273 OA
BRANCH  28  31
ATOM     31  CA  ALA A  13       0.596  -5.860   2.666  0.00  0.00    +0.137 C 
ATOM     32  CB  ALA A  13       0.604  -6.377   4.158  0.00  0.00    +0.030 C 
BRANCH  31  33
ATOM     33  C   ALA A  13       1.337  -6.787   1.726  0.00  0.00    +0.227 C 
ATOM     34  O   ALA A  13       2.519  -6.601   1.481  0.00  0.00    -0.286 OA
ENDBRANCH  31  33
ENDBRANCH  28  31
ENDBRANCH  25  27
ENDBRANCH  22  25
ENDBRANCH  20  21
ENDBRANCH  18  20
ENDBRANCH  15  16
BRANCH  15  35
ATOM     35  CB  THR A  10      -5.867  -8.770   5.048  0.00  0.00    +0.137 C 
ATOM     36  CG2 THR A  10      -5.771 -10.249   4.703  0.00  0.00    +0.034 C 
BRANCH  35  37
ATOM     37  OG1 THR A  10      -6.179  -8.644   6.445  0.00  0.00    -0.382 OA
ATOM     38  HG1 THR A  10      -6.257  -7.685   6.679  0.00  0.00    +0.210 HD
ENDBRANCH  35  37
ENDBRANCH  15  35
ENDBRANCH  12  15
ENDBRANCH  10  11
ENDBRANCH   7  10
ENDBRANCH   5   6
BRANCH   5  39
ATOM     39  CB  THR A   8      -6.300  -1.432   4.410  0.00  0.00    +0.137 C 
ATOM     40  CG2 THR A   8      -5.095  -0.651   3.892  0.00  0.00    +0.034 C 
BRANCH  39  41
ATOM     41  OG1 THR A   8      -7.477  -0.834   3.914  0.00  0.00    -0.382 OA
ATOM     42  HG1 THR A   8      -8.265  -1.317   4.268  0.00  0.00    +0.210 HD
ENDBRANCH  39  41
ENDBRANCH   5  39
ENDBRANCH   2   5
BRANCH   1  43
ATOM     43  CA  GLY A   7      -9.173  -5.292   4.305  0.00  0.00    +0.176 C 
BRANCH  43  46
ATOM     44  C   GLY A   6      -8.915  -6.341   6.433  0.00  0.00    +0.243 C 
ATOM     45  O   GLY A   6      -8.349  -7.283   5.888  0.00  0.00    -0.273 OA
ATOM     46  N   GLY A   7      -9.340  -5.319   5.737  0.00  0.00    -0.295 N 
ATOM     47  H   GLY A   7      -9.801  -4.521   6.219  0.00  0.00    +0.150 HD
BRANCH  44  48
ATOM     48  CA  GLY A   6      -9.199  -6.345   7.934  0.00  0.00    +0.176 C 
BRANCH  48  51
ATOM     49  C   GLY A   5      -8.942  -8.579   8.937  0.00  0.00    +0.243 C 
ATOM     50  O   GLY A   5     -10.150  -8.827   8.837  0.00  0.00    -0.273 OA
ATOM     51  N   GLY A   6      -8.429  -7.389   8.595  0.00  0.00    -0.295 N 
ATOM     52  H   GLY A   6      -7.430  -7.202   8.813  0.00  0.00    +0.150 HD
BRANCH  49  53
ATOM     53  CA  GLY A   5      -8.020  -9.650   9.479  0.00  0.00    +0.176 C 
BRANCH  53  56
ATOM     54  C   LEU A   4      -5.691  -9.420  10.158  0.00  0.00    +0.241 C 
ATOM     55  O   LEU A   4      -5.940  -9.504  11.361  0.00  0.00    -0.273 OA
ATOM     56  N   GLY A   5      -6.594  -9.421   9.185  0.00  0.00    -0.295 N 
ATOM     57  H   GLY A   5      -6.292  -9.258   8.203  0.00  0.00    +0.150 HD
BRANCH  54  58
ATOM     58  CA  LEU A   4      -4.276  -9.167   9.668  0.00  0.00    +0.149 C 
BRANCH  58  60
ATOM     59  C   GLY A   3      -3.681  -7.065  10.689  0.00  0.00    +0.243 C 
ATOM     60  N   LEU A   4      -3.520  -8.385  10.621  0.00  0.00    -0.297 N 
ATOM     61  H   LEU A   4      -2.846  -8.857  11.257  0.00  0.00    +0.150 HD
ATOM     62  O   GLY A   3      -4.456  -6.482   9.937  0.00  0.00    -0.273 OA
BRANCH  59  63
ATOM     63  CA  GLY A   3      -2.865  -6.276  11.677  0.00  0.00    +0.176 C 
BRANCH  63  66
ATOM     64  C   ALA A   2      -0.730  -5.949  10.526  0.00  0.00    +0.241 C 
ATOM     65  O   ALA A   2      -0.239  -6.987  10.932  0.00  0.00    -0.273 OA
ATOM     66  N   GLY A   3      -1.924  -5.492  10.894  0.00  0.00    -0.295 N 
ATOM     67  H   GLY A   3      -2.197  -4.530  10.608  0.00  0.00    +0.150 HD
BRANCH  64  68
ATOM     68  CA  ALA A   2      -0.005  -5.160   9.421  0.00  0.00    +0.149 C 
ATOM     69  CB  ALA A   2      -0.239  -5.853   8.094  0.00  0.00    +0.031 C 
BRANCH  68  71
ATOM     70  C   SER A   1       2.102  -3.959   9.461  0.00  0.00    +0.241 C 
ATOM     71  N   ALA A   2       1.390  -5.055   9.735  0.00  0.00    -0.297 N 
ATOM     72  H   ALA A   2       1.864  -5.860  10.192  0.00  0.00    +0.150 HD
ATOM     73  O   SER A   1       1.612  -2.946   8.978  0.00  0.00    -0.274 OA
BRANCH  70  74
ATOM     74  CA  SER A   1       3.581  -3.998   9.859  0.00  0.00    +0.174 C 
BRANCH  74  75
ATOM     75  N   SER A   1       4.379  -3.733   8.658  0.00  0.00    -0.236 NA
ATOM     76  H   SER A   1       4.520  -2.746   8.361  0.00  0.00    +0.142 HD
ENDBRANCH  74  75
BRANCH  74  77
ATOM     77  CB  SER A   1       3.859  -2.889  10.859  0.00  0.00    +0.163 C 
BRANCH  77  78
ATOM     78  OG  SER A   1       2.990  -2.884  11.963  0.00  0.00    -0.380 OA
ATOM     79  H   SER A   1       3.070  -3.743  12.449  0.00  0.00    +0.211 HD
ENDBRANCH  77  78
ENDBRANCH  74  77
ENDBRANCH  70  74
ENDBRANCH  68  71
ENDBRANCH  64  68
ENDBRANCH  63  66
ENDBRANCH  59  63
ENDBRANCH  58  60
BRANCH  58  80
ATOM     80  CB  LEU A   4      -3.572 -10.504   9.312  0.00  0.00    +0.029 C 
BRANCH  80  81
ATOM     81  CG  LEU A   4      -2.135 -10.334   8.778  0.00  0.00    +0.002 C 
ATOM     82  CD2 LEU A   4      -1.537 -11.705   8.454  0.00  0.00    +0.000 C 
ATOM     83  CD1 LEU A   4      -2.071  -9.438   7.563  0.00  0.00    +0.000 C 
ENDBRANCH  80  81
ENDBRANCH  58  80
ENDBRANCH  54  58
ENDBRANCH  53  56
ENDBRANCH  49  53
ENDBRANCH  48  51
ENDBRANCH  44  48
ENDBRANCH  43  46
ENDBRANCH   1  43
TORSDOF 34
REMARK  Name = ../refined-set-2016/2r75/2r75_pocket.pdb
REMARK  217 active torsions:
REMARK  status: ('A' for Active; 'I' for Inactive)
REMARK    1  A    between atoms: _1  and  _3
REMARK    2  A    between atoms: _3  and  _4
REMARK    3  A    between atoms: _3  and  _6
REMARK    4  A    between atoms: _9  and  _11
REMARK    5  A    between atoms: _11  and  _12
REMARK    6  A    between atoms: _14  and  _16
REMARK    7  A    between atoms: _16  and  _17
REMARK    8  A    between atoms: _19  and  _21
REMARK    9  A    between atoms: _21  and  _22
REMARK   10  A    between atoms: _24  and  _26
REMARK   11  A    between atoms: _26  and  _27
REMARK   12  A    between atoms: _29  and  _31
REMARK   13  A    between atoms: _31  and  _32
REMARK   14  A    between atoms: _31  and  _34
REMARK   15  A    between atoms: _34  and  _35
REMARK   16  A    between atoms: _37  and  _39
REMARK   17  A    between atoms: _39  and  _40
REMARK   18  A    between atoms: _39  and  _42
REMARK   19  A    between atoms: _42  and  _43
REMARK   20  A    between atoms: _48  and  _50
REMARK   21  A    between atoms: _50  and  _51
REMARK   22  A    between atoms: _54  and  _56
REMARK   23  A    between atoms: _56  and  _57
REMARK   24  A    between atoms: _56  and  _59
REMARK   25  A    between atoms: _62  and  _64
REMARK   26  A    between atoms: _64  and  _65
REMARK   27  A    between atoms: _64  and  _67
REMARK   28  A    between atoms: _67  and  _68
REMARK   29  A    between atoms: _73  and  _75
REMARK   30  A    between atoms: _75  and  _76
REMARK   31  A    between atoms: _75  and  _78
REMARK   32  A    between atoms: _78  and  _79
REMARK   33  A    between atoms: _79  and  _80
REMARK   34  A    between atoms: _80  and  _81
REMARK   35  A    between atoms: _90  and  _92
REMARK   36  A    between atoms: _92  and  _93
REMARK   37  A    between atoms: _92  and  _95
REMARK   38  A    between atoms: _95  and  _96
REMARK   39  A    between atoms: _99  and  _101
REMARK   40  A    between atoms: _101  and  _102
REMARK   41  A    between atoms: _101  and  _104
REMARK   42  A    between atoms: _104  and  _105
REMARK   43  A    between atoms: _110  and  _112
REMARK   44  A    between atoms: _112  and  _113
REMARK   45  A    between atoms: _112  and  _115
REMARK   46  A    between atoms: _115  and  _116
REMARK   47  A    between atoms: _119  and  _121
REMARK   48  A    between atoms: _121  and  _122
REMARK   49  A    between atoms: _121  and  _124
REMARK   50  A    between atoms: _124  and  _125
REMARK   51  A    between atoms: _128  and  _130
REMARK   52  A    between atoms: _130  and  _131
REMARK   53  A    between atoms: _130  and  _133
REMARK   54  A    between atoms: _133  and  _134
REMARK   55  A    between atoms: _139  and  _141
REMARK   56  A    between atoms: _141  and  _142
REMARK   57  A    between atoms: _141  and  _144
REMARK   58  A    between atoms: _144  and  _145
REMARK   59  A    between atoms: _148  and  _150
REMARK   60  A    between atoms: _150  and  _151
REMARK   61  A    between atoms: _150  and  _153
REMARK   62  A    between atoms: _153  and  _154
REMARK   63  A    between atoms: _157  and  _159
REMARK   64  A    between atoms: _159  and  _160
REMARK   65  A    between atoms: _162  and  _164
REMARK   66  A    between atoms: _164  and  _165
REMARK   67  A    between atoms: _168  and  _170
REMARK   68  A    between atoms: _170  and  _171
REMARK   69  A    between atoms: _173  and  _175
REMARK   70  A    between atoms: _175  and  _176
REMARK   71  A    between atoms: _179  and  _181
REMARK   72  A    between atoms: _181  and  _182
REMARK   73  A    between atoms: _181  and  _184
REMARK   74  A    between atoms: _184  and  _185
REMARK   75  A    between atoms: _185  and  _186
REMARK   76  A    between atoms: _186  and  _187
REMARK   77  A    between atoms: _187  and  _188
REMARK   78  A    between atoms: _193  and  _194
REMARK   79  A    between atoms: _199  and  _201
REMARK   80  A    between atoms: _201  and  _202
REMARK   81  A    between atoms: _201  and  _204
REMARK   82  A    between atoms: _207  and  _209
REMARK   83  A    between atoms: _209  and  _210
REMARK   84  A    between atoms: _212  and  _214
REMARK   85  A    between atoms: _214  and  _215
REMARK   86  A    between atoms: _214  and  _217
REMARK   87  A    between atoms: _217  and  _218
REMARK   88  A    between atoms: _220  and  _222
REMARK   89  A    between atoms: _222  and  _223
REMARK   90  A    between atoms: _226  and  _228
REMARK   91  A    between atoms: _228  and  _229
REMARK   92  A    between atoms: _231  and  _233
REMARK   93  A    between atoms: _233  and  _234
REMARK   94  A    between atoms: _233  and  _236
REMARK   95  A    between atoms: _236  and  _237
REMARK   96  A    between atoms: _240  and  _242
REMARK   97  A    between atoms: _242  and  _243
REMARK   98  A    between atoms: _245  and  _247
REMARK   99  A    between atoms: _247  and  _248
REMARK  100  A    between atoms: _250  and  _252
REMARK  101  A    between atoms: _252  and  _253
REMARK  102  A    between atoms: _255  and  _257
REMARK  103  A    between atoms: _257  and  _258
REMARK  104  A    between atoms: _257  and  _260
REMARK  105  A    between atoms: _260  and  _261
REMARK  106  A    between atoms: _264  and  _266
REMARK  107  A    between atoms: _266  and  _267
REMARK  108  A    between atoms: _269  and  _271
REMARK  109  A    between atoms: _271  and  _272
REMARK  110  A    between atoms: _271  and  _274
REMARK  111  A    between atoms: _274  and  _275
REMARK  112  A    between atoms: _278  and  _280
REMARK  113  A    between atoms: _280  and  _281
REMARK  114  A    between atoms: _283  and  _285
REMARK  115  A    between atoms: _285  and  _286
REMARK  116  A    between atoms: _289  and  _291
REMARK  117  A    between atoms: _291  and  _292
REMARK  118  A    between atoms: _295  and  _297
REMARK  119  A    between atoms: _297  and  _298
REMARK  120  A    between atoms: _297  and  _300
REMARK  121  A    between atoms: _300  and  _301
REMARK  122  A    between atoms: _304  and  _306
REMARK  123  A    between atoms: _306  and  _307
REMARK  124  A    between atoms: _306  and  _309
REMARK  125  A    between atoms: _309  and  _310
REMARK  126  A    between atoms: _314  and  _315
REMARK  127  A    between atoms: _320  and  _322
REMARK  128  A    between atoms: _322  and  _323
REMARK  129  A    between atoms: _322  and  _325
REMARK  130  A    between atoms: _325  and  _326
REMARK  131  A    between atoms: _332  and  _334
REMARK  132  A    between atoms: _334  and  _335
REMARK  133  A    between atoms: _334  and  _337
REMARK  134  A    between atoms: _337  and  _338
REMARK  135  A    between atoms: _344  and  _346
REMARK  136  A    between atoms: _346  and  _347
REMARK  137  A    between atoms: _346  and  _349
REMARK  138  A    between atoms: _349  and  _350
REMARK  139  A    between atoms: _350  and  _351
REMARK  140  A    between atoms: _354  and  _356
REMARK  141  A    between atoms: _356  and  _357
REMARK  142  A    between atoms: _356  and  _359
REMARK  143  A    between atoms: _359  and  _360
REMARK  144  A    between atoms: _360  and  _361
REMARK  145  A    between atoms: _361  and  _362
REMARK  146  A    between atoms: _362  and  _363
REMARK  147  A    between atoms: _367  and  _369
REMARK  148  A    between atoms: _369  and  _370
REMARK  149  A    between atoms: _369  and  _372
REMARK  150  A    between atoms: _372  and  _373
REMARK  151  A    between atoms: _373  and  _374
REMARK  152  A    between atoms: _376  and  _378
REMARK  153  A    between atoms: _378  and  _379
REMARK  154  A    between atoms: _378  and  _381
REMARK  155  A    between atoms: _381  and  _382
REMARK  156  A    between atoms: _382  and  _383
REMARK  157  A    between atoms: _383  and  _384
REMARK  158  A    between atoms: _384  and  _385
REMARK  159  A    between atoms: _389  and  _391
REMARK  160  A    between atoms: _391  and  _392
REMARK  161  A    between atoms: _395  and  _397
REMARK  162  A    between atoms: _397  and  _398
REMARK  163  A    between atoms: _397  and  _400
REMARK  164  A    between atoms: _400  and  _401
REMARK  165  A    between atoms: _406  and  _408
REMARK  166  A    between atoms: _408  and  _409
REMARK  167  A    between atoms: _408  and  _411
REMARK  168  A    between atoms: _411  and  _412
REMARK  169  A    between atoms: _415  and  _417
REMARK  170  A    between atoms: _417  and  _418
REMARK  171  A    between atoms: _417  and  _420
REMARK  172  A    between atoms: _420  and  _421
REMARK  173  A    between atoms: _424  and  _426
REMARK  174  A    between atoms: _426  and  _427
REMARK  175  A    between atoms: _426  and  _429
REMARK  176  A    between atoms: _429  and  _430
REMARK  177  A    between atoms: _430  and  _431
REMARK  178  A    between atoms: _431  and  _432
REMARK  179  A    between atoms: _432  and  _433
REMARK  180  A    between atoms: _437  and  _439
REMARK  181  A    between atoms: _439  and  _440
REMARK  182  A    between atoms: _443  and  _445
REMARK  183  A    between atoms: _445  and  _446
REMARK  184  A    between atoms: _445  and  _448
REMARK  185  A    between atoms: _448  and  _449
REMARK  186  A    between atoms: _455  and  _457
REMARK  187  A    between atoms: _457  and  _458
REMARK  188  A    between atoms: _457  and  _460
REMARK  189  A    between atoms: _461  and  _462
REMARK  190  A    between atoms: _462  and  _463
REMARK  191  A    between atoms: _463  and  _464
REMARK  192  A    between atoms: _468  and  _470
REMARK  193  A    between atoms: _470  and  _471
REMARK  194  A    between atoms: _470  and  _473
REMARK  195  A    between atoms: _474  and  _475
REMARK  196  A    between atoms: _478  and  _480
REMARK  197  A    between atoms: _480  and  _481
REMARK  198  A    between atoms: _480  and  _483
REMARK  199  A    between atoms: _486  and  _488
REMARK  200  A    between atoms: _488  and  _489
REMARK  201  A    between atoms: _488  and  _491
REMARK  202  A    between atoms: _491  and  _492
REMARK  203  A    between atoms: _495  and  _497
REMARK  204  A    between atoms: _497  and  _498
REMARK  205  A    between atoms: _497  and  _500
REMARK  206  A    between atoms: _500  and  _501
REMARK  207  A    between atoms: _503  and  _505
REMARK  208  A    between atoms: _505  and  _506
REMARK  209  A    between atoms: _505  and  _508
REMARK  210  A    between atoms: _511  and  _513
REMARK  211  A    between atoms: _513  and  _514
REMARK  212  A    between atoms: _513  and  _516
REMARK  213  A    between atoms: _516  and  _517
REMARK  214  A    between atoms: _520  and  _522
REMARK  215  A    between atoms: _522  and  _523
REMARK  216  A    between atoms: _522  and  _525
REMARK  217  A    between atoms: _525  and  _526
REMARK                            x       y       z     vdW  Elec       q    Type
REMARK                         _______ _______ _______ _____ _____    ______ ____
ROOT
ATOM      1  C   LEU A   2      -4.320 -12.063  15.253  0.00  0.00    +0.244 C 
ATOM      2  O   LEU A   2      -3.889 -11.821  16.362  0.00  0.00    -0.273 OA
ATOM      3  N   PRO A   3      -5.611 -11.926  14.971  0.00  0.00    -0.272 N 
ATOM      4  CA  PRO A   3      -6.544 -11.288  15.892  0.00  0.00    +0.152 C 
ATOM      5  CB  PRO A   3      -7.819 -11.135  15.037  0.00  0.00    +0.031 C 
ATOM      6  CG  PRO A   3      -7.684 -12.122  13.932  0.00  0.00    +0.024 C 
ATOM      7  CD  PRO A   3      -6.231 -12.240  13.667  0.00  0.00    +0.094 C 
ENDROOT
BRANCH   4   8
ATOM      8  C   PRO A   3      -6.810 -11.983  17.204  0.00  0.00    +0.241 C 
ATOM      9  N   PHE A   4      -7.283 -11.203  18.157  0.00  0.00    -0.298 N 
ATOM     10  H   PHE A   4      -7.323 -10.174  18.010  0.00  0.00    +0.150 HD
ATOM     11  O   PRO A   3      -6.609 -13.183  17.340  0.00  0.00    -0.273 OA
BRANCH   9  12
ATOM     12  CA  PHE A   4      -7.759 -11.786  19.440  0.00  0.00    +0.141 C 
BRANCH  12  13
ATOM     13  C   PHE A   4      -8.977 -12.668  19.203  0.00  0.00    +0.227 C 
ATOM     14  O   PHE A   4      -9.787 -12.425  18.286  0.00  0.00    -0.286 OA
ENDBRANCH  12  13
BRANCH  12  15
ATOM     15  CB  PHE A   4      -8.188 -10.674  20.388  0.00  0.00    +0.054 C 
BRANCH  15  16
ATOM     16  CG  PHE A   4      -7.071  -9.825  20.955  0.00  0.00    -0.020 A 
ATOM     17  CD2 PHE A   4      -6.346 -10.271  22.053  0.00  0.00    -0.004 A 
ATOM     18  CE2 PHE A   4      -5.390  -9.467  22.658  0.00  0.00    -0.000 A 
ATOM     19  CZ  PHE A   4      -5.169  -8.193  22.180  0.00  0.00    -0.000 A 
ATOM     20  CE1 PHE A   4      -5.932  -7.713  21.105  0.00  0.00    -0.000 A 
ATOM     21  CD1 PHE A   4      -6.859  -8.508  20.511  0.00  0.00    -0.004 A 
ENDBRANCH  15  16
ENDBRANCH  12  15
ENDBRANCH   9  12
ENDBRANCH   4   8
BRANCH   1  22
ATOM     22  CA  LEU A   2      -3.388 -12.542  14.110  0.00  0.00    +0.149 C 
BRANCH  22  24
ATOM     23  C   THR A   1      -1.822 -10.784  13.457  0.00  0.00    +0.241 C 
ATOM     24  N   LEU A   2      -2.162 -11.801  14.235  0.00  0.00    -0.297 N 
ATOM     25  H   LEU A   2      -1.499 -12.082  14.985  0.00  0.00    +0.150 HD
ATOM     26  O   THR A   1      -2.388 -10.475  12.414  0.00  0.00    -0.274 OA
BRANCH  23  27
ATOM     27  CA  THR A   1      -0.631  -9.980  13.937  0.00  0.00    +0.172 C 
BRANCH  27  28
ATOM     28  N   THR A   1       0.131  -9.413  12.827  0.00  0.00    -0.236 NA
ATOM     29  H   THR A   1      -0.204  -8.553  12.348  0.00  0.00    +0.142 HD
ENDBRANCH  27  28
BRANCH  27  30
ATOM     30  CB  THR A   1      -1.104  -8.905  14.953  0.00  0.00    +0.135 C 
ATOM     31  CG2 THR A   1       0.075  -8.191  15.590  0.00  0.00    +0.034 C 
BRANCH  30  32
ATOM     32  OG1 THR A   1      -2.004  -7.992  14.329  0.00  0.00    -0.383 OA
ATOM     33  HG1 THR A   1      -2.295  -7.314  14.989  0.00  0.00    +0.210 HD
ENDBRANCH  30  32
ENDBRANCH  27  30
ENDBRANCH  23  27
ENDBRANCH  22  24
BRANCH  22  34
ATOM     34  CB  LEU A   2      -3.115 -14.051  14.218  0.00  0.00    +0.029 C 
BRANCH  34  35
ATOM     35  CG  LEU A   2      -2.171 -14.632  13.162  0.00  0.00    +0.002 C 
ATOM     36  CD2 LEU A   2      -1.964 -16.126  13.392  0.00  0.00    +0.000 C 
ATOM     37  CD1 LEU A   2      -2.659 -14.271  11.760  0.00  0.00    +0.000 C 
ENDBRANCH  34  35
ENDBRANCH  22  34
ENDBRANCH   1  22
TORSDOF 13
REMARK  Name = ../refined-set-2016/2r75/2r75_pocket.pdb
REMARK  217 active torsions:
REMARK  status: ('A' for Active; 'I' for Inactive)
REMARK    1  A    between atoms: _1  and  _3
REMARK    2  A    between atoms: _3  and  _4
REMARK    3  A    between atoms: _3  and  _6
REMARK    4  A    between atoms: _9  and  _11
REMARK    5  A    between atoms: _11  and  _12
REMARK    6  A    between atoms: _14  and  _16
REMARK    7  A    between atoms: _16  and  _17
REMARK    8  A    between atoms: _19  and  _21
REMARK    9  A    between atoms: _21  and  _22
REMARK   10  A    between atoms: _24  and  _26
REMARK   11  A    between atoms: _26  and  _27
REMARK   12  A    between atoms: _29  and  _31
REMARK   13  A    between atoms: _31  and  _32
REMARK   14  A    between atoms: _31  and  _34
REMARK   15  A    between atoms: _34  and  _35
REMARK   16  A    between atoms: _37  and  _39
REMARK   17  A    between atoms: _39  and  _40
REMARK   18  A    between atoms: _39  and  _42
REMARK   19  A    between atoms: _42  and  _43
REMARK   20  A    between atoms: _48  and  _50
REMARK   21  A    between atoms: _50  and  _51
REMARK   22  A    between atoms: _54  and  _56
REMARK   23  A    between atoms: _56  and  _57
REMARK   24  A    between atoms: _56  and  _59
REMARK   25  A    between atoms: _62  and  _64
REMARK   26  A    between atoms: _64  and  _65
REMARK   27  A    between atoms: _64  and  _67
REMARK   28  A    between atoms: _67  and  _68
REMARK   29  A    between atoms: _73  and  _75
REMARK   30  A    between atoms: _75  and  _76
REMARK   31  A    between atoms: _75  and  _78
REMARK   32  A    between atoms: _78  and  _79
REMARK   33  A    between atoms: _79  and  _80
REMARK   34  A    between atoms: _80  and  _81
REMARK   35  A    between atoms: _90  and  _92
REMARK   36  A    between atoms: _92  and  _93
REMARK   37  A    between atoms: _92  and  _95
REMARK   38  A    between atoms: _95  and  _96
REMARK   39  A    between atoms: _99  and  _101
REMARK   40  A    between atoms: _101  and  _102
REMARK   41  A    between atoms: _101  and  _104
REMARK   42  A    between atoms: _104  and  _105
REMARK   43  A    between atoms: _110  and  _112
REMARK   44  A    between atoms: _112  and  _113
REMARK   45  A    between atoms: _112  and  _115
REMARK   46  A    between atoms: _115  and  _116
REMARK   47  A    between atoms: _119  and  _121
REMARK   48  A    between atoms: _121  and  _122
REMARK   49  A    between atoms: _121  and  _124
REMARK   50  A    between atoms: _124  and  _125
REMARK   51  A    between atoms: _128  and  _130
REMARK   52  A    between atoms: _130  and  _131
REMARK   53  A    between atoms: _130  and  _133
REMARK   54  A    between atoms: _133  and  _134
REMARK   55  A    between atoms: _139  and  _141
REMARK   56  A    between atoms: _141  and  _142
REMARK   57  A    between atoms: _141  and  _144
REMARK   58  A    between atoms: _144  and  _145
REMARK   59  A    between atoms: _148  and  _150
REMARK   60  A    between atoms: _150  and  _151
REMARK   61  A    between atoms: _150  and  _153
REMARK   62  A    between atoms: _153  and  _154
REMARK   63  A    between atoms: _157  and  _159
REMARK   64  A    between atoms: _159  and  _160
REMARK   65  A    between atoms: _162  and  _164
REMARK   66  A    between atoms: _164  and  _165
REMARK   67  A    between atoms: _168  and  _170
REMARK   68  A    between atoms: _170  and  _171
REMARK   69  A    between atoms: _173  and  _175
REMARK   70  A    between atoms: _175  and  _176
REMARK   71  A    between atoms: _179  and  _181
REMARK   72  A    between atoms: _181  and  _182
REMARK   73  A    between atoms: _181  and  _184
REMARK   74  A    between atoms: _184  and  _185
REMARK   75  A    between atoms: _185  and  _186
REMARK   76  A    between atoms: _186  and  _187
REMARK   77  A    between atoms: _187  and  _188
REMARK   78  A    between atoms: _193  and  _194
REMARK   79  A    between atoms: _199  and  _201
REMARK   80  A    between atoms: _201  and  _202
REMARK   81  A    between atoms: _201  and  _204
REMARK   82  A    between atoms: _207  and  _209
REMARK   83  A    between atoms: _209  and  _210
REMARK   84  A    between atoms: _212  and  _214
REMARK   85  A    between atoms: _214  and  _215
REMARK   86  A    between atoms: _214  and  _217
REMARK   87  A    between atoms: _217  and  _218
REMARK   88  A    between atoms: _220  and  _222
REMARK   89  A    between atoms: _222  and  _223
REMARK   90  A    between atoms: _226  and  _228
REMARK   91  A    between atoms: _228  and  _229
REMARK   92  A    between atoms: _231  and  _233
REMARK   93  A    between atoms: _233  and  _234
REMARK   94  A    between atoms: _233  and  _236
REMARK   95  A    between atoms: _236  and  _237
REMARK   96  A    between atoms: _240  and  _242
REMARK   97  A    between atoms: _242  and  _243
REMARK   98  A    between atoms: _245  and  _247
REMARK   99  A    between atoms: _247  and  _248
REMARK  100  A    between atoms: _250  and  _252
REMARK  101  A    between atoms: _252  and  _253
REMARK  102  A    between atoms: _255  and  _257
REMARK  103  A    between atoms: _257  and  _258
REMARK  104  A    between atoms: _257  and  _260
REMARK  105  A    between atoms: _260  and  _261
REMARK  106  A    between atoms: _264  and  _266
REMARK  107  A    between atoms: _266  and  _267
REMARK  108  A    between atoms: _269  and  _271
REMARK  109  A    between atoms: _271  and  _272
REMARK  110  A    between atoms: _271  and  _274
REMARK  111  A    between atoms: _274  and  _275
REMARK  112  A    between atoms: _278  and  _280
REMARK  113  A    between atoms: _280  and  _281
REMARK  114  A    between atoms: _283  and  _285
REMARK  115  A    between atoms: _285  and  _286
REMARK  116  A    between atoms: _289  and  _291
REMARK  117  A    between atoms: _291  and  _292
REMARK  118  A    between atoms: _295  and  _297
REMARK  119  A    between atoms: _297  and  _298
REMARK  120  A    between atoms: _297  and  _300
REMARK  121  A    between atoms: _300  and  _301
REMARK  122  A    between atoms: _304  and  _306
REMARK  123  A    between atoms: _306  and  _307
REMARK  124  A    between atoms: _306  and  _309
REMARK  125  A    between atoms: _309  and  _310
REMARK  126  A    between atoms: _314  and  _315
REMARK  127  A    between atoms: _320  and  _322
REMARK  128  A    between atoms: _322  and  _323
REMARK  129  A    between atoms: _322  and  _325
REMARK  130  A    between atoms: _325  and  _326
REMARK  131  A    between atoms: _332  and  _334
REMARK  132  A    between atoms: _334  and  _335
REMARK  133  A    between atoms: _334  and  _337
REMARK  134  A    between atoms: _337  and  _338
REMARK  135  A    between atoms: _344  and  _346
REMARK  136  A    between atoms: _346  and  _347
REMARK  137  A    between atoms: _346  and  _349
REMARK  138  A    between atoms: _349  and  _350
REMARK  139  A    between atoms: _350  and  _351
REMARK  140  A    between atoms: _354  and  _356
REMARK  141  A    between atoms: _356  and  _357
REMARK  142  A    between atoms: _356  and  _359
REMARK  143  A    between atoms: _359  and  _360
REMARK  144  A    between atoms: _360  and  _361
REMARK  145  A    between atoms: _361  and  _362
REMARK  146  A    between atoms: _362  and  _363
REMARK  147  A    between atoms: _367  and  _369
REMARK  148  A    between atoms: _369  and  _370
REMARK  149  A    between atoms: _369  and  _372
REMARK  150  A    between atoms: _372  and  _373
REMARK  151  A    between atoms: _373  and  _374
REMARK  152  A    between atoms: _376  and  _378
REMARK  153  A    between atoms: _378  and  _379
REMARK  154  A    between atoms: _378  and  _381
REMARK  155  A    between atoms: _381  and  _382
REMARK  156  A    between atoms: _382  and  _383
REMARK  157  A    between atoms: _383  and  _384
REMARK  158  A    between atoms: _384  and  _385
REMARK  159  A    between atoms: _389  and  _391
REMARK  160  A    between atoms: _391  and  _392
REMARK  161  A    between atoms: _395  and  _397
REMARK  162  A    between atoms: _397  and  _398
REMARK  163  A    between atoms: _397  and  _400
REMARK  164  A    between atoms: _400  and  _401
REMARK  165  A    between atoms: _406  and  _408
REMARK  166  A    between atoms: _408  and  _409
REMARK  167  A    between atoms: _408  and  _411
REMARK  168  A    between atoms: _411  and  _412
REMARK  169  A    between atoms: _415  and  _417
REMARK  170  A    between atoms: _417  and  _418
REMARK  171  A    between atoms: _417  and  _420
REMARK  172  A    between atoms: _420  and  _421
REMARK  173  A    between atoms: _424  and  _426
REMARK  174  A    between atoms: _426  and  _427
REMARK  175  A    between atoms: _426  and  _429
REMARK  176  A    between atoms: _429  and  _430
REMARK  177  A    between atoms: _430  and  _431
REMARK  178  A    between atoms: _431  and  _432
REMARK  179  A    between atoms: _432  and  _433
REMARK  180  A    between atoms: _437  and  _439
REMARK  181  A    between atoms: _439  and  _440
REMARK  182  A    between atoms: _443  and  _445
REMARK  183  A    between atoms: _445  and  _446
REMARK  184  A    between atoms: _445  and  _448
REMARK  185  A    between atoms: _448  and  _449
REMARK  186  A    between atoms: _455  and  _457
REMARK  187  A    between atoms: _457  and  _458
REMARK  188  A    between atoms: _457  and  _460
REMARK  189  A    between atoms: _461  and  _462
REMARK  190  A    between atoms: _462  and  _463
REMARK  191  A    between atoms: _463  and  _464
REMARK  192  A    between atoms: _468  and  _470
REMARK  193  A    between atoms: _470  and  _471
REMARK  194  A    between atoms: _470  and  _473
REMARK  195  A    between atoms: _474  and  _475
REMARK  196  A    between atoms: _478  and  _480
REMARK  197  A    between atoms: _480  and  _481
REMARK  198  A    between atoms: _480  and  _483
REMARK  199  A    between atoms: _486  and  _488
REMARK  200  A    between atoms: _488  and  _489
REMARK  201  A    between atoms: _488  and  _491
REMARK  202  A    between atoms: _491  and  _492
REMARK  203  A    between atoms: _495  and  _497
REMARK  204  A    between atoms: _497  and  _498
REMARK  205  A    between atoms: _497  and  _500
REMARK  206  A    between atoms: _500  and  _501
REMARK  207  A    between atoms: _503  and  _505
REMARK  208  A    between atoms: _505  and  _506
REMARK  209  A    between atoms: _505  and  _508
REMARK  210  A    between atoms: _511  and  _513
REMARK  211  A    between atoms: _513  and  _514
REMARK  212  A    between atoms: _513  and  _516
REMARK  213  A    between atoms: _516  and  _517
REMARK  214  A    between atoms: _520  and  _522
REMARK  215  A    between atoms: _522  and  _523
REMARK  216  A    between atoms: _522  and  _525
REMARK  217  A    between atoms: _525  and  _526
REMARK                            x       y       z     vdW  Elec       q    Type
REMARK                         _______ _______ _______ _____ _____    ______ ____
ROOT
ATOM      1  C   PHE A   1     -13.228 -10.925  19.676  0.00  0.00    +0.239 C 
ATOM      2  O   PHE A   1     -14.317 -10.316  19.626  0.00  0.00    -0.274 OA
ATOM      3  N   GLU A   2     -12.376 -11.001  18.648  0.00  0.00    -0.298 N 
ATOM      4  H   GLU A   2     -11.453 -11.454  18.804  0.00  0.00    +0.150 HD
ENDROOT
BRANCH   1   5
ATOM      5  CA  PHE A   1     -12.851 -11.635  20.987  0.00  0.00    +0.149 C 
BRANCH   5   6
ATOM      6  N   PHE A   1     -11.643 -12.508  20.855  0.00  0.00    -0.238 NA
ATOM      7  H   PHE A   1     -10.772 -12.260  21.366  0.00  0.00    +0.142 HD
ENDBRANCH   5   6
BRANCH   5   8
ATOM      8  CB  PHE A   1     -12.726 -10.599  22.111  0.00  0.00    +0.053 C 
BRANCH   8   9
ATOM      9  CG  PHE A   1     -11.707  -9.515  21.881  0.00  0.00    -0.020 A 
ATOM     10  CD2 PHE A   1     -10.576  -9.438  22.685  0.00  0.00    -0.004 A 
ATOM     11  CE2 PHE A   1      -9.689  -8.412  22.573  0.00  0.00    -0.000 A 
ATOM     12  CZ  PHE A   1      -9.905  -7.426  21.662  0.00  0.00    -0.000 A 
ATOM     13  CE1 PHE A   1     -10.999  -7.465  20.829  0.00  0.00    -0.000 A 
ATOM     14  CD1 PHE A   1     -11.938  -8.467  20.972  0.00  0.00    -0.004 A 
ENDBRANCH   8   9
ENDBRANCH   5   8
ENDBRANCH   1   5
BRANCH   3  15
ATOM     15  CA  GLU A   2     -12.680 -10.475  17.303  0.00  0.00    +0.137 C 
BRANCH  15  16
ATOM     16  C   GLU A   2     -13.433 -11.426  16.417  0.00  0.00    +0.227 C 
ATOM     17  O   GLU A   2     -13.865 -11.079  15.356  0.00  0.00    -0.286 OA
ENDBRANCH  15  16
BRANCH  15  18
ATOM     18  CB  GLU A   2     -11.378 -10.070  16.624  0.00  0.00    +0.039 C 
BRANCH  18  19
ATOM     19  CG  GLU A   2     -10.658  -8.987  17.385  0.00  0.00    +0.116 C 
BRANCH  19  20
ATOM     20  CD  GLU A   2      -9.489  -8.447  16.595  0.00  0.00    +0.365 C 
ATOM     21  OE2 GLU A   2      -8.300  -8.639  17.006  0.00  0.00    -0.246 OA
ATOM     22  OE1 GLU A   2      -9.789  -7.765  15.577  0.00  0.00    -0.246 OA
ENDBRANCH  19  20
ENDBRANCH  18  19
ENDBRANCH  15  18
ENDBRANCH   3  15
TORSDOF 9
REMARK  Name = ../refined-set-2016/2r75/2r75_pocket.pdb
REMARK  217 active torsions:
REMARK  status: ('A' for Active; 'I' for Inactive)
REMARK    1  A    between atoms: _1  and  _3
REMARK    2  A    between atoms: _3  and  _4
REMARK    3  A    between atoms: _3  and  _6
REMARK    4  A    between atoms: _9  and  _11
REMARK    5  A    between atoms: _11  and  _12
REMARK    6  A    between atoms: _14  and  _16
REMARK    7  A    between atoms: _16  and  _17
REMARK    8  A    between atoms: _19  and  _21
REMARK    9  A    between atoms: _21  and  _22
REMARK   10  A    between atoms: _24  and  _26
REMARK   11  A    between atoms: _26  and  _27
REMARK   12  A    between atoms: _29  and  _31
REMARK   13  A    between atoms: _31  and  _32
REMARK   14  A    between atoms: _31  and  _34
REMARK   15  A    between atoms: _34  and  _35
REMARK   16  A    between atoms: _37  and  _39
REMARK   17  A    between atoms: _39  and  _40
REMARK   18  A    between atoms: _39  and  _42
REMARK   19  A    between atoms: _42  and  _43
REMARK   20  A    between atoms: _48  and  _50
REMARK   21  A    between atoms: _50  and  _51
REMARK   22  A    between atoms: _54  and  _56
REMARK   23  A    between atoms: _56  and  _57
REMARK   24  A    between atoms: _56  and  _59
REMARK   25  A    between atoms: _62  and  _64
REMARK   26  A    between atoms: _64  and  _65
REMARK   27  A    between atoms: _64  and  _67
REMARK   28  A    between atoms: _67  and  _68
REMARK   29  A    between atoms: _73  and  _75
REMARK   30  A    between atoms: _75  and  _76
REMARK   31  A    between atoms: _75  and  _78
REMARK   32  A    between atoms: _78  and  _79
REMARK   33  A    between atoms: _79  and  _80
REMARK   34  A    between atoms: _80  and  _81
REMARK   35  A    between atoms: _90  and  _92
REMARK   36  A    between atoms: _92  and  _93
REMARK   37  A    between atoms: _92  and  _95
REMARK   38  A    between atoms: _95  and  _96
REMARK   39  A    between atoms: _99  and  _101
REMARK   40  A    between atoms: _101  and  _102
REMARK   41  A    between atoms: _101  and  _104
REMARK   42  A    between atoms: _104  and  _105
REMARK   43  A    between atoms: _110  and  _112
REMARK   44  A    between atoms: _112  and  _113
REMARK   45  A    between atoms: _112  and  _115
REMARK   46  A    between atoms: _115  and  _116
REMARK   47  A    between atoms: _119  and  _121
REMARK   48  A    between atoms: _121  and  _122
REMARK   49  A    between atoms: _121  and  _124
REMARK   50  A    between atoms: _124  and  _125
REMARK   51  A    between atoms: _128  and  _130
REMARK   52  A    between atoms: _130  and  _131
REMARK   53  A    between atoms: _130  and  _133
REMARK   54  A    between atoms: _133  and  _134
REMARK   55  A    between atoms: _139  and  _141
REMARK   56  A    between atoms: _141  and  _142
REMARK   57  A    between atoms: _141  and  _144
REMARK   58  A    between atoms: _144  and  _145
REMARK   59  A    between atoms: _148  and  _150
REMARK   60  A    between atoms: _150  and  _151
REMARK   61  A    between atoms: _150  and  _153
REMARK   62  A    between atoms: _153  and  _154
REMARK   63  A    between atoms: _157  and  _159
REMARK   64  A    between atoms: _159  and  _160
REMARK   65  A    between atoms: _162  and  _164
REMARK   66  A    between atoms: _164  and  _165
REMARK   67  A    between atoms: _168  and  _170
REMARK   68  A    between atoms: _170  and  _171
REMARK   69  A    between atoms: _173  and  _175
REMARK   70  A    between atoms: _175  and  _176
REMARK   71  A    between atoms: _179  and  _181
REMARK   72  A    between atoms: _181  and  _182
REMARK   73  A    between atoms: _181  and  _184
REMARK   74  A    between atoms: _184  and  _185
REMARK   75  A    between atoms: _185  and  _186
REMARK   76  A    between atoms: _186  and  _187
REMARK   77  A    between atoms: _187  and  _188
REMARK   78  A    between atoms: _193  and  _194
REMARK   79  A    between atoms: _199  and  _201
REMARK   80  A    between atoms: _201  and  _202
REMARK   81  A    between atoms: _201  and  _204
REMARK   82  A    between atoms: _207  and  _209
REMARK   83  A    between atoms: _209  and  _210
REMARK   84  A    between atoms: _212  and  _214
REMARK   85  A    between atoms: _214  and  _215
REMARK   86  A    between atoms: _214  and  _217
REMARK   87  A    between atoms: _217  and  _218
REMARK   88  A    between atoms: _220  and  _222
REMARK   89  A    between atoms: _222  and  _223
REMARK   90  A    between atoms: _226  and  _228
REMARK   91  A    between atoms: _228  and  _229
REMARK   92  A    between atoms: _231  and  _233
REMARK   93  A    between atoms: _233  and  _234
REMARK   94  A    between atoms: _233  and  _236
REMARK   95  A    between atoms: _236  and  _237
REMARK   96  A    between atoms: _240  and  _242
REMARK   97  A    between atoms: _242  and  _243
REMARK   98  A    between atoms: _245  and  _247
REMARK   99  A    between atoms: _247  and  _248
REMARK  100  A    between atoms: _250  and  _252
REMARK  101  A    between atoms: _252  and  _253
REMARK  102  A    between atoms: _255  and  _257
REMARK  103  A    between atoms: _257  and  _258
REMARK  104  A    between atoms: _257  and  _260
REMARK  105  A    between atoms: _260  and  _261
REMARK  106  A    between atoms: _264  and  _266
REMARK  107  A    between atoms: _266  and  _267
REMARK  108  A    between atoms: _269  and  _271
REMARK  109  A    between atoms: _271  and  _272
REMARK  110  A    between atoms: _271  and  _274
REMARK  111  A    between atoms: _274  and  _275
REMARK  112  A    between atoms: _278  and  _280
REMARK  113  A    between atoms: _280  and  _281
REMARK  114  A    between atoms: _283  and  _285
REMARK  115  A    between atoms: _285  and  _286
REMARK  116  A    between atoms: _289  and  _291
REMARK  117  A    between atoms: _291  and  _292
REMARK  118  A    between atoms: _295  and  _297
REMARK  119  A    between atoms: _297  and  _298
REMARK  120  A    between atoms: _297  and  _300
REMARK  121  A    between atoms: _300  and  _301
REMARK  122  A    between atoms: _304  and  _306
REMARK  123  A    between atoms: _306  and  _307
REMARK  124  A    between atoms: _306  and  _309
REMARK  125  A    between atoms: _309  and  _310
REMARK  126  A    between atoms: _314  and  _315
REMARK  127  A    between atoms: _320  and  _322
REMARK  128  A    between atoms: _322  and  _323
REMARK  129  A    between atoms: _322  and  _325
REMARK  130  A    between atoms: _325  and  _326
REMARK  131  A    between atoms: _332  and  _334
REMARK  132  A    between atoms: _334  and  _335
REMARK  133  A    between atoms: _334  and  _337
REMARK  134  A    between atoms: _337  and  _338
REMARK  135  A    between atoms: _344  and  _346
REMARK  136  A    between atoms: _346  and  _347
REMARK  137  A    between atoms: _346  and  _349
REMARK  138  A    between atoms: _349  and  _350
REMARK  139  A    between atoms: _350  and  _351
REMARK  140  A    between atoms: _354  and  _356
REMARK  141  A    between atoms: _356  and  _357
REMARK  142  A    between atoms: _356  and  _359
REMARK  143  A    between atoms: _359  and  _360
REMARK  144  A    between atoms: _360  and  _361
REMARK  145  A    between atoms: _361  and  _362
REMARK  146  A    between atoms: _362  and  _363
REMARK  147  A    between atoms: _367  and  _369
REMARK  148  A    between atoms: _369  and  _370
REMARK  149  A    between atoms: _369  and  _372
REMARK  150  A    between atoms: _372  and  _373
REMARK  151  A    between atoms: _373  and  _374
REMARK  152  A    between atoms: _376  and  _378
REMARK  153  A    between atoms: _378  and  _379
REMARK  154  A    between atoms: _378  and  _381
REMARK  155  A    between atoms: _381  and  _382
REMARK  156  A    between atoms: _382  and  _383
REMARK  157  A    between atoms: _383  and  _384
REMARK  158  A    between atoms: _384  and  _385
REMARK  159  A    between atoms: _389  and  _391
REMARK  160  A    between atoms: _391  and  _392
REMARK  161  A    between atoms: _395  and  _397
REMARK  162  A    between atoms: _397  and  _398
REMARK  163  A    between atoms: _397  and  _400
REMARK  164  A    between atoms: _400  and  _401
REMARK  165  A    between atoms: _406  and  _408
REMARK  166  A    between atoms: _408  and  _409
REMARK  167  A    between atoms: _408  and  _411
REMARK  168  A    between atoms: _411  and  _412
REMARK  169  A    between atoms: _415  and  _417
REMARK  170  A    between atoms: _417  and  _418
REMARK  171  A    between atoms: _417  and  _420
REMARK  172  A    between atoms: _420  and  _421
REMARK  173  A    between atoms: _424  and  _426
REMARK  174  A    between atoms: _426  and  _427
REMARK  175  A    between atoms: _426  and  _429
REMARK  176  A    between atoms: _429  and  _430
REMARK  177  A    between atoms: _430  and  _431
REMARK  178  A    between atoms: _431  and  _432
REMARK  179  A    between atoms: _432  and  _433
REMARK  180  A    between atoms: _437  and  _439
REMARK  181  A    between atoms: _439  and  _440
REMARK  182  A    between atoms: _443  and  _445
REMARK  183  A    between atoms: _445  and  _446
REMARK  184  A    between atoms: _445  and  _448
REMARK  185  A    between atoms: _448  and  _449
REMARK  186  A    between atoms: _455  and  _457
REMARK  187  A    between atoms: _457  and  _458
REMARK  188  A    between atoms: _457  and  _460
REMARK  189  A    between atoms: _461  and  _462
REMARK  190  A    between atoms: _462  and  _463
REMARK  191  A    between atoms: _463  and  _464
REMARK  192  A    between atoms: _468  and  _470
REMARK  193  A    between atoms: _470  and  _471
REMARK  194  A    between atoms: _470  and  _473
REMARK  195  A    between atoms: _474  and  _475
REMARK  196  A    between atoms: _478  and  _480
REMARK  197  A    between atoms: _480  and  _481
REMARK  198  A    between atoms: _480  and  _483
REMARK  199  A    between atoms: _486  and  _488
REMARK  200  A    between atoms: _488  and  _489
REMARK  201  A    between atoms: _488  and  _491
REMARK  202  A    between atoms: _491  and  _492
REMARK  203  A    between atoms: _495  and  _497
REMARK  204  A    between atoms: _497  and  _498
REMARK  205  A    between atoms: _497  and  _500
REMARK  206  A    between atoms: _500  and  _501
REMARK  207  A    between atoms: _503  and  _505
REMARK  208  A    between atoms: _505  and  _506
REMARK  209  A    between atoms: _505  and  _508
REMARK  210  A    between atoms: _511  and  _513
REMARK  211  A    between atoms: _513  and  _514
REMARK  212  A    between atoms: _513  and  _516
REMARK  213  A    between atoms: _516  and  _517
REMARK  214  A    between atoms: _520  and  _522
REMARK  215  A    between atoms: _522  and  _523
REMARK  216  A    between atoms: _522  and  _525
REMARK  217  A    between atoms: _525  and  _526
REMARK                            x       y       z     vdW  Elec       q    Type
REMARK                         _______ _______ _______ _____ _____    ______ ____
ROOT
ATOM      1  CA  LYS A   1     -11.501 -12.115  11.166  0.00  0.00    +0.145 C 
ENDROOT
BRANCH   1   2
ATOM      2  C   LYS A   1     -10.310 -13.042  11.165  0.00  0.00    +0.238 C 
ATOM      3  N   MET A   2     -10.327 -14.125  11.942  0.00  0.00    -0.298 N 
ATOM      4  H   MET A   2     -11.146 -14.319  12.553  0.00  0.00    +0.150 HD
ATOM      5  O   LYS A   1      -9.373 -12.805  10.408  0.00  0.00    -0.274 OA
BRANCH   3   6
ATOM      6  CA  MET A   2      -9.183 -15.040  11.928  0.00  0.00    +0.138 C 
BRANCH   6   7
ATOM      7  C   MET A   2      -9.051 -15.777  10.585  0.00  0.00    +0.227 C 
ATOM      8  O   MET A   2      -7.933 -15.937  10.073  0.00  0.00    -0.286 OA
ENDBRANCH   6   7
BRANCH   6   9
ATOM      9  CB  MET A   2      -9.239 -16.017  13.109  0.00  0.00    +0.039 C 
BRANCH   9  10
ATOM     10  CG  MET A   2      -8.129 -17.056  13.128  0.00  0.00    +0.060 C 
BRANCH  10  11
ATOM     11  SD  MET A   2      -6.508 -16.269  13.466  0.00  0.00    -0.139 S 
ATOM     12  CE  MET A   2      -6.724 -15.881  15.241  0.00  0.00    +0.069 C 
ENDBRANCH  10  11
ENDBRANCH   9  10
ENDBRANCH   6   9
ENDBRANCH   3   6
ENDBRANCH   1   2
BRANCH   1  13
ATOM     13  N   LYS A   1     -12.736 -12.900  11.228  0.00  0.00    -0.238 NA
ATOM     14  H   LYS A   1     -13.386 -12.789  12.032  0.00  0.00    +0.142 HD
ENDBRANCH   1  13
BRANCH   1  15
ATOM     15  CB  LYS A   1     -11.444 -11.094  12.275  0.00  0.00    +0.026 C 
BRANCH  15  16
ATOM     16  CG  LYS A   1     -12.388  -9.879  11.993  0.00  0.00    -0.000 C 
BRANCH  16  17
ATOM     17  CD  LYS A   1     -11.900  -8.665  12.704  0.00  0.00    -0.024 C 
BRANCH  17  18
ATOM     18  CE  LYS A   1     -11.014  -7.847  11.802  0.00  0.00    -0.086 C 
BRANCH  18  19
ATOM     19  NZ  LYS A   1     -11.724  -7.197  10.645  0.00  0.00    +0.380 N 
ATOM     20  HZ1 LYS A   1     -12.459  -6.557  11.007  0.00  0.00    -0.089 HD
ATOM     21  HZ2 LYS A   1     -11.039  -6.656  10.079  0.00  0.00    -0.089 HD
ATOM     22  HZ3 LYS A   1     -12.162  -7.931  10.052  0.00  0.00    -0.089 HD
ENDBRANCH  18  19
ENDBRANCH  17  18
ENDBRANCH  16  17
ENDBRANCH  15  16
ENDBRANCH   1  15
TORSDOF 12
REMARK  Name = ../refined-set-2016/2r75/2r75_pocket.pdb
REMARK  217 active torsions:
REMARK  status: ('A' for Active; 'I' for Inactive)
REMARK    1  A    between atoms: _1  and  _3
REMARK    2  A    between atoms: _3  and  _4
REMARK    3  A    between atoms: _3  and  _6
REMARK    4  A    between atoms: _9  and  _11
REMARK    5  A    between atoms: _11  and  _12
REMARK    6  A    between atoms: _14  and  _16
REMARK    7  A    between atoms: _16  and  _17
REMARK    8  A    between atoms: _19  and  _21
REMARK    9  A    between atoms: _21  and  _22
REMARK   10  A    between atoms: _24  and  _26
REMARK   11  A    between atoms: _26  and  _27
REMARK   12  A    between atoms: _29  and  _31
REMARK   13  A    between atoms: _31  and  _32
REMARK   14  A    between atoms: _31  and  _34
REMARK   15  A    between atoms: _34  and  _35
REMARK   16  A    between atoms: _37  and  _39
REMARK   17  A    between atoms: _39  and  _40
REMARK   18  A    between atoms: _39  and  _42
REMARK   19  A    between atoms: _42  and  _43
REMARK   20  A    between atoms: _48  and  _50
REMARK   21  A    between atoms: _50  and  _51
REMARK   22  A    between atoms: _54  and  _56
REMARK   23  A    between atoms: _56  and  _57
REMARK   24  A    between atoms: _56  and  _59
REMARK   25  A    between atoms: _62  and  _64
REMARK   26  A    between atoms: _64  and  _65
REMARK   27  A    between atoms: _64  and  _67
REMARK   28  A    between atoms: _67  and  _68
REMARK   29  A    between atoms: _73  and  _75
REMARK   30  A    between atoms: _75  and  _76
REMARK   31  A    between atoms: _75  and  _78
REMARK   32  A    between atoms: _78  and  _79
REMARK   33  A    between atoms: _79  and  _80
REMARK   34  A    between atoms: _80  and  _81
REMARK   35  A    between atoms: _90  and  _92
REMARK   36  A    between atoms: _92  and  _93
REMARK   37  A    between atoms: _92  and  _95
REMARK   38  A    between atoms: _95  and  _96
REMARK   39  A    between atoms: _99  and  _101
REMARK   40  A    between atoms: _101  and  _102
REMARK   41  A    between atoms: _101  and  _104
REMARK   42  A    between atoms: _104  and  _105
REMARK   43  A    between atoms: _110  and  _112
REMARK   44  A    between atoms: _112  and  _113
REMARK   45  A    between atoms: _112  and  _115
REMARK   46  A    between atoms: _115  and  _116
REMARK   47  A    between atoms: _119  and  _121
REMARK   48  A    between atoms: _121  and  _122
REMARK   49  A    between atoms: _121  and  _124
REMARK   50  A    between atoms: _124  and  _125
REMARK   51  A    between atoms: _128  and  _130
REMARK   52  A    between atoms: _130  and  _131
REMARK   53  A    between atoms: _130  and  _133
REMARK   54  A    between atoms: _133  and  _134
REMARK   55  A    between atoms: _139  and  _141
REMARK   56  A    between atoms: _141  and  _142
REMARK   57  A    between atoms: _141  and  _144
REMARK   58  A    between atoms: _144  and  _145
REMARK   59  A    between atoms: _148  and  _150
REMARK   60  A    between atoms: _150  and  _151
REMARK   61  A    between atoms: _150  and  _153
REMARK   62  A    between atoms: _153  and  _154
REMARK   63  A    between atoms: _157  and  _159
REMARK   64  A    between atoms: _159  and  _160
REMARK   65  A    between atoms: _162  and  _164
REMARK   66  A    between atoms: _164  and  _165
REMARK   67  A    between atoms: _168  and  _170
REMARK   68  A    between atoms: _170  and  _171
REMARK   69  A    between atoms: _173  and  _175
REMARK   70  A    between atoms: _175  and  _176
REMARK   71  A    between atoms: _179  and  _181
REMARK   72  A    between atoms: _181  and  _182
REMARK   73  A    between atoms: _181  and  _184
REMARK   74  A    between atoms: _184  and  _185
REMARK   75  A    between atoms: _185  and  _186
REMARK   76  A    between atoms: _186  and  _187
REMARK   77  A    between atoms: _187  and  _188
REMARK   78  A    between atoms: _193  and  _194
REMARK   79  A    between atoms: _199  and  _201
REMARK   80  A    between atoms: _201  and  _202
REMARK   81  A    between atoms: _201  and  _204
REMARK   82  A    between atoms: _207  and  _209
REMARK   83  A    between atoms: _209  and  _210
REMARK   84  A    between atoms: _212  and  _214
REMARK   85  A    between atoms: _214  and  _215
REMARK   86  A    between atoms: _214  and  _217
REMARK   87  A    between atoms: _217  and  _218
REMARK   88  A    between atoms: _220  and  _222
REMARK   89  A    between atoms: _222  and  _223
REMARK   90  A    between atoms: _226  and  _228
REMARK   91  A    between atoms: _228  and  _229
REMARK   92  A    between atoms: _231  and  _233
REMARK   93  A    between atoms: _233  and  _234
REMARK   94  A    between atoms: _233  and  _236
REMARK   95  A    between atoms: _236  and  _237
REMARK   96  A    between atoms: _240  and  _242
REMARK   97  A    between atoms: _242  and  _243
REMARK   98  A    between atoms: _245  and  _247
REMARK   99  A    between atoms: _247  and  _248
REMARK  100  A    between atoms: _250  and  _252
REMARK  101  A    between atoms: _252  and  _253
REMARK  102  A    between atoms: _255  and  _257
REMARK  103  A    between atoms: _257  and  _258
REMARK  104  A    between atoms: _257  and  _260
REMARK  105  A    between atoms: _260  and  _261
REMARK  106  A    between atoms: _264  and  _266
REMARK  107  A    between atoms: _266  and  _267
REMARK  108  A    between atoms: _269  and  _271
REMARK  109  A    between atoms: _271  and  _272
REMARK  110  A    between atoms: _271  and  _274
REMARK  111  A    between atoms: _274  and  _275
REMARK  112  A    between atoms: _278  and  _280
REMARK  113  A    between atoms: _280  and  _281
REMARK  114  A    between atoms: _283  and  _285
REMARK  115  A    between atoms: _285  and  _286
REMARK  116  A    between atoms: _289  and  _291
REMARK  117  A    between atoms: _291  and  _292
REMARK  118  A    between atoms: _295  and  _297
REMARK  119  A    between atoms: _297  and  _298
REMARK  120  A    between atoms: _297  and  _300
REMARK  121  A    between atoms: _300  and  _301
REMARK  122  A    between atoms: _304  and  _306
REMARK  123  A    between atoms: _306  and  _307
REMARK  124  A    between atoms: _306  and  _309
REMARK  125  A    between atoms: _309  and  _310
REMARK  126  A    between atoms: _314  and  _315
REMARK  127  A    between atoms: _320  and  _322
REMARK  128  A    between atoms: _322  and  _323
REMARK  129  A    between atoms: _322  and  _325
REMARK  130  A    between atoms: _325  and  _326
REMARK  131  A    between atoms: _332  and  _334
REMARK  132  A    between atoms: _334  and  _335
REMARK  133  A    between atoms: _334  and  _337
REMARK  134  A    between atoms: _337  and  _338
REMARK  135  A    between atoms: _344  and  _346
REMARK  136  A    between atoms: _346  and  _347
REMARK  137  A    between atoms: _346  and  _349
REMARK  138  A    between atoms: _349  and  _350
REMARK  139  A    between atoms: _350  and  _351
REMARK  140  A    between atoms: _354  and  _356
REMARK  141  A    between atoms: _356  and  _357
REMARK  142  A    between atoms: _356  and  _359
REMARK  143  A    between atoms: _359  and  _360
REMARK  144  A    between atoms: _360  and  _361
REMARK  145  A    between atoms: _361  and  _362
REMARK  146  A    between atoms: _362  and  _363
REMARK  147  A    between atoms: _367  and  _369
REMARK  148  A    between atoms: _369  and  _370
REMARK  149  A    between atoms: _369  and  _372
REMARK  150  A    between atoms: _372  and  _373
REMARK  151  A    between atoms: _373  and  _374
REMARK  152  A    between atoms: _376  and  _378
REMARK  153  A    between atoms: _378  and  _379
REMARK  154  A    between atoms: _378  and  _381
REMARK  155  A    between atoms: _381  and  _382
REMARK  156  A    between atoms: _382  and  _383
REMARK  157  A    between atoms: _383  and  _384
REMARK  158  A    between atoms: _384  and  _385
REMARK  159  A    between atoms: _389  and  _391
REMARK  160  A    between atoms: _391  and  _392
REMARK  161  A    between atoms: _395  and  _397
REMARK  162  A    between atoms: _397  and  _398
REMARK  163  A    between atoms: _397  and  _400
REMARK  164  A    between atoms: _400  and  _401
REMARK  165  A    between atoms: _406  and  _408
REMARK  166  A    between atoms: _408  and  _409
REMARK  167  A    between atoms: _408  and  _411
REMARK  168  A    between atoms: _411  and  _412
REMARK  169  A    between atoms: _415  and  _417
REMARK  170  A    between atoms: _417  and  _418
REMARK  171  A    between atoms: _417  and  _420
REMARK  172  A    between atoms: _420  and  _421
REMARK  173  A    between atoms: _424  and  _426
REMARK  174  A    between atoms: _426  and  _427
REMARK  175  A    between atoms: _426  and  _429
REMARK  176  A    between atoms: _429  and  _430
REMARK  177  A    between atoms: _430  and  _431
REMARK  178  A    between atoms: _431  and  _432
REMARK  179  A    between atoms: _432  and  _433
REMARK  180  A    between atoms: _437  and  _439
REMARK  181  A    between atoms: _439  and  _440
REMARK  182  A    between atoms: _443  and  _445
REMARK  183  A    between atoms: _445  and  _446
REMARK  184  A    between atoms: _445  and  _448
REMARK  185  A    between atoms: _448  and  _449
REMARK  186  A    between atoms: _455  and  _457
REMARK  187  A    between atoms: _457  and  _458
REMARK  188  A    between atoms: _457  and  _460
REMARK  189  A    between atoms: _461  and  _462
REMARK  190  A    between atoms: _462  and  _463
REMARK  191  A    between atoms: _463  and  _464
REMARK  192  A    between atoms: _468  and  _470
REMARK  193  A    between atoms: _470  and  _471
REMARK  194  A    between atoms: _470  and  _473
REMARK  195  A    between atoms: _474  and  _475
REMARK  196  A    between atoms: _478  and  _480
REMARK  197  A    between atoms: _480  and  _481
REMARK  198  A    between atoms: _480  and  _483
REMARK  199  A    between atoms: _486  and  _488
REMARK  200  A    between atoms: _488  and  _489
REMARK  201  A    between atoms: _488  and  _491
REMARK  202  A    between atoms: _491  and  _492
REMARK  203  A    between atoms: _495  and  _497
REMARK  204  A    between atoms: _497  and  _498
REMARK  205  A    between atoms: _497  and  _500
REMARK  206  A    between atoms: _500  and  _501
REMARK  207  A    between atoms: _503  and  _505
REMARK  208  A    between atoms: _505  and  _506
REMARK  209  A    between atoms: _505  and  _508
REMARK  210  A    between atoms: _511  and  _513
REMARK  211  A    between atoms: _513  and  _514
REMARK  212  A    between atoms: _513  and  _516
REMARK  213  A    between atoms: _516  and  _517
REMARK  214  A    between atoms: _520  and  _522
REMARK  215  A    between atoms: _522  and  _523
REMARK  216  A    between atoms: _522  and  _525
REMARK  217  A    between atoms: _525  and  _526
REMARK                            x       y       z     vdW  Elec       q    Type
REMARK                         _______ _______ _______ _____ _____    ______ ____
ROOT
ATOM      1  CA  LYS A   1      -9.439 -13.747   6.665  0.00  0.00    +0.145 C 
ENDROOT
BRANCH   1   2
ATOM      2  C   LYS A   1      -7.964 -13.506   6.898  0.00  0.00    +0.238 C 
ATOM      3  N   ALA A   2      -7.567 -13.433   8.169  0.00  0.00    -0.298 N 
ATOM      4  H   ALA A   2      -8.272 -13.527   8.928  0.00  0.00    +0.150 HD
ATOM      5  O   LYS A   1      -7.196 -13.387   5.957  0.00  0.00    -0.274 OA
BRANCH   3   6
ATOM      6  CA  ALA A   2      -6.145 -13.221   8.524  0.00  0.00    +0.137 C 
ATOM      7  CB  ALA A   2      -5.980 -13.052  10.044  0.00  0.00    +0.030 C 
BRANCH   6   8
ATOM      8  C   ALA A   2      -5.258 -14.321   8.018  0.00  0.00    +0.227 C 
ATOM      9  O   ALA A   2      -4.204 -14.073   7.439  0.00  0.00    -0.286 OA
ENDBRANCH   6   8
ENDBRANCH   3   6
ENDBRANCH   1   2
BRANCH   1  10
ATOM     10  N   LYS A   1      -9.949 -14.684   7.632  0.00  0.00    -0.238 NA
ATOM     11  H   LYS A   1     -10.655 -14.376   8.331  0.00  0.00    +0.142 HD
ENDBRANCH   1  10
BRANCH   1  12
ATOM     12  CB  LYS A   1     -10.181 -12.417   6.739  0.00  0.00    +0.026 C 
BRANCH  12  13
ATOM     13  CG  LYS A   1     -11.518 -12.361   6.075  0.00  0.00    -0.000 C 
BRANCH  13  14
ATOM     14  CD  LYS A   1     -12.022 -10.872   6.027  0.00  0.00    -0.024 C 
BRANCH  14  15
ATOM     15  CE  LYS A   1     -13.355 -10.876   5.537  0.00  0.00    -0.086 C 
BRANCH  15  16
ATOM     16  NZ  LYS A   1     -13.941  -9.723   6.073  0.00  0.00    +0.380 N 
ATOM     17  HZ1 LYS A   1     -13.913  -9.772   7.111  0.00  0.00    -0.089 HD
ATOM     18  HZ2 LYS A   1     -14.929  -9.657   5.754  0.00  0.00    -0.089 HD
ATOM     19  HZ3 LYS A   1     -13.415  -8.886   5.750  0.00  0.00    -0.089 HD
ENDBRANCH  15  16
ENDBRANCH  14  15
ENDBRANCH  13  14
ENDBRANCH  12  13
ENDBRANCH   1  12
TORSDOF 9
REMARK  Name = ../refined-set-2016/2r75/2r75_pocket.pdb
REMARK  217 active torsions:
REMARK  status: ('A' for Active; 'I' for Inactive)
REMARK    1  A    between atoms: _1  and  _3
REMARK    2  A    between atoms: _3  and  _4
REMARK    3  A    between atoms: _3  and  _6
REMARK    4  A    between atoms: _9  and  _11
REMARK    5  A    between atoms: _11  and  _12
REMARK    6  A    between atoms: _14  and  _16
REMARK    7  A    between atoms: _16  and  _17
REMARK    8  A    between atoms: _19  and  _21
REMARK    9  A    between atoms: _21  and  _22
REMARK   10  A    between atoms: _24  and  _26
REMARK   11  A    between atoms: _26  and  _27
REMARK   12  A    between atoms: _29  and  _31
REMARK   13  A    between atoms: _31  and  _32
REMARK   14  A    between atoms: _31  and  _34
REMARK   15  A    between atoms: _34  and  _35
REMARK   16  A    between atoms: _37  and  _39
REMARK   17  A    between atoms: _39  and  _40
REMARK   18  A    between atoms: _39  and  _42
REMARK   19  A    between atoms: _42  and  _43
REMARK   20  A    between atoms: _48  and  _50
REMARK   21  A    between atoms: _50  and  _51
REMARK   22  A    between atoms: _54  and  _56
REMARK   23  A    between atoms: _56  and  _57
REMARK   24  A    between atoms: _56  and  _59
REMARK   25  A    between atoms: _62  and  _64
REMARK   26  A    between atoms: _64  and  _65
REMARK   27  A    between atoms: _64  and  _67
REMARK   28  A    between atoms: _67  and  _68
REMARK   29  A    between atoms: _73  and  _75
REMARK   30  A    between atoms: _75  and  _76
REMARK   31  A    between atoms: _75  and  _78
REMARK   32  A    between atoms: _78  and  _79
REMARK   33  A    between atoms: _79  and  _80
REMARK   34  A    between atoms: _80  and  _81
REMARK   35  A    between atoms: _90  and  _92
REMARK   36  A    between atoms: _92  and  _93
REMARK   37  A    between atoms: _92  and  _95
REMARK   38  A    between atoms: _95  and  _96
REMARK   39  A    between atoms: _99  and  _101
REMARK   40  A    between atoms: _101  and  _102
REMARK   41  A    between atoms: _101  and  _104
REMARK   42  A    between atoms: _104  and  _105
REMARK   43  A    between atoms: _110  and  _112
REMARK   44  A    between atoms: _112  and  _113
REMARK   45  A    between atoms: _112  and  _115
REMARK   46  A    between atoms: _115  and  _116
REMARK   47  A    between atoms: _119  and  _121
REMARK   48  A    between atoms: _121  and  _122
REMARK   49  A    between atoms: _121  and  _124
REMARK   50  A    between atoms: _124  and  _125
REMARK   51  A    between atoms: _128  and  _130
REMARK   52  A    between atoms: _130  and  _131
REMARK   53  A    between atoms: _130  and  _133
REMARK   54  A    between atoms: _133  and  _134
REMARK   55  A    between atoms: _139  and  _141
REMARK   56  A    between atoms: _141  and  _142
REMARK   57  A    between atoms: _141  and  _144
REMARK   58  A    between atoms: _144  and  _145
REMARK   59  A    between atoms: _148  and  _150
REMARK   60  A    between atoms: _150  and  _151
REMARK   61  A    between atoms: _150  and  _153
REMARK   62  A    between atoms: _153  and  _154
REMARK   63  A    between atoms: _157  and  _159
REMARK   64  A    between atoms: _159  and  _160
REMARK   65  A    between atoms: _162  and  _164
REMARK   66  A    between atoms: _164  and  _165
REMARK   67  A    between atoms: _168  and  _170
REMARK   68  A    between atoms: _170  and  _171
REMARK   69  A    between atoms: _173  and  _175
REMARK   70  A    between atoms: _175  and  _176
REMARK   71  A    between atoms: _179  and  _181
REMARK   72  A    between atoms: _181  and  _182
REMARK   73  A    between atoms: _181  and  _184
REMARK   74  A    between atoms: _184  and  _185
REMARK   75  A    between atoms: _185  and  _186
REMARK   76  A    between atoms: _186  and  _187
REMARK   77  A    between atoms: _187  and  _188
REMARK   78  A    between atoms: _193  and  _194
REMARK   79  A    between atoms: _199  and  _201
REMARK   80  A    between atoms: _201  and  _202
REMARK   81  A    between atoms: _201  and  _204
REMARK   82  A    between atoms: _207  and  _209
REMARK   83  A    between atoms: _209  and  _210
REMARK   84  A    between atoms: _212  and  _214
REMARK   85  A    between atoms: _214  and  _215
REMARK   86  A    between atoms: _214  and  _217
REMARK   87  A    between atoms: _217  and  _218
REMARK   88  A    between atoms: _220  and  _222
REMARK   89  A    between atoms: _222  and  _223
REMARK   90  A    between atoms: _226  and  _228
REMARK   91  A    between atoms: _228  and  _229
REMARK   92  A    between atoms: _231  and  _233
REMARK   93  A    between atoms: _233  and  _234
REMARK   94  A    between atoms: _233  and  _236
REMARK   95  A    between atoms: _236  and  _237
REMARK   96  A    between atoms: _240  and  _242
REMARK   97  A    between atoms: _242  and  _243
REMARK   98  A    between atoms: _245  and  _247
REMARK   99  A    between atoms: _247  and  _248
REMARK  100  A    between atoms: _250  and  _252
REMARK  101  A    between atoms: _252  and  _253
REMARK  102  A    between atoms: _255  and  _257
REMARK  103  A    between atoms: _257  and  _258
REMARK  104  A    between atoms: _257  and  _260
REMARK  105  A    between atoms: _260  and  _261
REMARK  106  A    between atoms: _264  and  _266
REMARK  107  A    between atoms: _266  and  _267
REMARK  108  A    between atoms: _269  and  _271
REMARK  109  A    between atoms: _271  and  _272
REMARK  110  A    between atoms: _271  and  _274
REMARK  111  A    between atoms: _274  and  _275
REMARK  112  A    between atoms: _278  and  _280
REMARK  113  A    between atoms: _280  and  _281
REMARK  114  A    between atoms: _283  and  _285
REMARK  115  A    between atoms: _285  and  _286
REMARK  116  A    between atoms: _289  and  _291
REMARK  117  A    between atoms: _291  and  _292
REMARK  118  A    between atoms: _295  and  _297
REMARK  119  A    between atoms: _297  and  _298
REMARK  120  A    between atoms: _297  and  _300
REMARK  121  A    between atoms: _300  and  _301
REMARK  122  A    between atoms: _304  and  _306
REMARK  123  A    between atoms: _306  and  _307
REMARK  124  A    between atoms: _306  and  _309
REMARK  125  A    between atoms: _309  and  _310
REMARK  126  A    between atoms: _314  and  _315
REMARK  127  A    between atoms: _320  and  _322
REMARK  128  A    between atoms: _322  and  _323
REMARK  129  A    between atoms: _322  and  _325
REMARK  130  A    between atoms: _325  and  _326
REMARK  131  A    between atoms: _332  and  _334
REMARK  132  A    between atoms: _334  and  _335
REMARK  133  A    between atoms: _334  and  _337
REMARK  134  A    between atoms: _337  and  _338
REMARK  135  A    between atoms: _344  and  _346
REMARK  136  A    between atoms: _346  and  _347
REMARK  137  A    between atoms: _346  and  _349
REMARK  138  A    between atoms: _349  and  _350
REMARK  139  A    between atoms: _350  and  _351
REMARK  140  A    between atoms: _354  and  _356
REMARK  141  A    between atoms: _356  and  _357
REMARK  142  A    between atoms: _356  and  _359
REMARK  143  A    between atoms: _359  and  _360
REMARK  144  A    between atoms: _360  and  _361
REMARK  145  A    between atoms: _361  and  _362
REMARK  146  A    between atoms: _362  and  _363
REMARK  147  A    between atoms: _367  and  _369
REMARK  148  A    between atoms: _369  and  _370
REMARK  149  A    between atoms: _369  and  _372
REMARK  150  A    between atoms: _372  and  _373
REMARK  151  A    between atoms: _373  and  _374
REMARK  152  A    between atoms: _376  and  _378
REMARK  153  A    between atoms: _378  and  _379
REMARK  154  A    between atoms: _378  and  _381
REMARK  155  A    between atoms: _381  and  _382
REMARK  156  A    between atoms: _382  and  _383
REMARK  157  A    between atoms: _383  and  _384
REMARK  158  A    between atoms: _384  and  _385
REMARK  159  A    between atoms: _389  and  _391
REMARK  160  A    between atoms: _391  and  _392
REMARK  161  A    between atoms: _395  and  _397
REMARK  162  A    between atoms: _397  and  _398
REMARK  163  A    between atoms: _397  and  _400
REMARK  164  A    between atoms: _400  and  _401
REMARK  165  A    between atoms: _406  and  _408
REMARK  166  A    between atoms: _408  and  _409
REMARK  167  A    between atoms: _408  and  _411
REMARK  168  A    between atoms: _411  and  _412
REMARK  169  A    between atoms: _415  and  _417
REMARK  170  A    between atoms: _417  and  _418
REMARK  171  A    between atoms: _417  and  _420
REMARK  172  A    between atoms: _420  and  _421
REMARK  173  A    between atoms: _424  and  _426
REMARK  174  A    between atoms: _426  and  _427
REMARK  175  A    between atoms: _426  and  _429
REMARK  176  A    between atoms: _429  and  _430
REMARK  177  A    between atoms: _430  and  _431
REMARK  178  A    between atoms: _431  and  _432
REMARK  179  A    between atoms: _432  and  _433
REMARK  180  A    between atoms: _437  and  _439
REMARK  181  A    between atoms: _439  and  _440
REMARK  182  A    between atoms: _443  and  _445
REMARK  183  A    between atoms: _445  and  _446
REMARK  184  A    between atoms: _445  and  _448
REMARK  185  A    between atoms: _448  and  _449
REMARK  186  A    between atoms: _455  and  _457
REMARK  187  A    between atoms: _457  and  _458
REMARK  188  A    between atoms: _457  and  _460
REMARK  189  A    between atoms: _461  and  _462
REMARK  190  A    between atoms: _462  and  _463
REMARK  191  A    between atoms: _463  and  _464
REMARK  192  A    between atoms: _468  and  _470
REMARK  193  A    between atoms: _470  and  _471
REMARK  194  A    between atoms: _470  and  _473
REMARK  195  A    between atoms: _474  and  _475
REMARK  196  A    between atoms: _478  and  _480
REMARK  197  A    between atoms: _480  and  _481
REMARK  198  A    between atoms: _480  and  _483
REMARK  199  A    between atoms: _486  and  _488
REMARK  200  A    between atoms: _488  and  _489
REMARK  201  A    between atoms: _488  and  _491
REMARK  202  A    between atoms: _491  and  _492
REMARK  203  A    between atoms: _495  and  _497
REMARK  204  A    between atoms: _497  and  _498
REMARK  205  A    between atoms: _497  and  _500
REMARK  206  A    between atoms: _500  and  _501
REMARK  207  A    between atoms: _503  and  _505
REMARK  208  A    between atoms: _505  and  _506
REMARK  209  A    between atoms: _505  and  _508
REMARK  210  A    between atoms: _511  and  _513
REMARK  211  A    between atoms: _513  and  _514
REMARK  212  A    between atoms: _513  and  _516
REMARK  213  A    between atoms: _516  and  _517
REMARK  214  A    between atoms: _520  and  _522
REMARK  215  A    between atoms: _522  and  _523
REMARK  216  A    between atoms: _522  and  _525
REMARK  217  A    between atoms: _525  and  _526
REMARK                            x       y       z     vdW  Elec       q    Type
REMARK                         _______ _______ _______ _____ _____    ______ ____
ROOT
ATOM      1  CB  ASN A   1      -3.760 -10.406  19.466  0.00  0.00    +0.110 C 
ENDROOT
BRANCH   1   2
ATOM      2  CG  ASN A   1      -3.309  -9.413  18.451  0.00  0.00    +0.221 C 
ATOM      3  OD1 ASN A   1      -2.134  -9.341  18.171  0.00  0.00    -0.275 OA
ATOM      4  ND2 ASN A   1      -4.242  -8.622  17.927  0.00  0.00    -0.329 N 
ATOM      5 HD21 ASN A   1      -5.237  -8.734  18.209  0.00  0.00    +0.145 HD
ATOM      6 HD22 ASN A   1      -3.976  -7.892  17.236  0.00  0.00    +0.145 HD
ENDBRANCH   1   2
BRANCH   1   7
ATOM      7  CA  ASN A   1      -2.659 -11.354  19.923  0.00  0.00    +0.142 C 
BRANCH   7   8
ATOM      8  N   ASN A   1      -2.333 -12.290  18.847  0.00  0.00    -0.239 NA
ATOM      9  H   ASN A   1      -2.860 -12.265  17.951  0.00  0.00    +0.142 HD
ENDBRANCH   7   8
BRANCH   7  10
ATOM     10  C   ASN A   1      -3.092 -12.086  21.198  0.00  0.00    +0.225 C 
ATOM     11  O   ASN A   1      -2.863 -11.580  22.294  0.00  0.00    -0.287 OA
ENDBRANCH   7  10
ENDBRANCH   1   7
TORSDOF 4
REMARK  Name = ../refined-set-2016/2r75/2r75_pocket.pdb
REMARK  217 active torsions:
REMARK  status: ('A' for Active; 'I' for Inactive)
REMARK    1  A    between atoms: _1  and  _3
REMARK    2  A    between atoms: _3  and  _4
REMARK    3  A    between atoms: _3  and  _6
REMARK    4  A    between atoms: _9  and  _11
REMARK    5  A    between atoms: _11  and  _12
REMARK    6  A    between atoms: _14  and  _16
REMARK    7  A    between atoms: _16  and  _17
REMARK    8  A    between atoms: _19  and  _21
REMARK    9  A    between atoms: _21  and  _22
REMARK   10  A    between atoms: _24  and  _26
REMARK   11  A    between atoms: _26  and  _27
REMARK   12  A    between atoms: _29  and  _31
REMARK   13  A    between atoms: _31  and  _32
REMARK   14  A    between atoms: _31  and  _34
REMARK   15  A    between atoms: _34  and  _35
REMARK   16  A    between atoms: _37  and  _39
REMARK   17  A    between atoms: _39  and  _40
REMARK   18  A    between atoms: _39  and  _42
REMARK   19  A    between atoms: _42  and  _43
REMARK   20  A    between atoms: _48  and  _50
REMARK   21  A    between atoms: _50  and  _51
REMARK   22  A    between atoms: _54  and  _56
REMARK   23  A    between atoms: _56  and  _57
REMARK   24  A    between atoms: _56  and  _59
REMARK   25  A    between atoms: _62  and  _64
REMARK   26  A    between atoms: _64  and  _65
REMARK   27  A    between atoms: _64  and  _67
REMARK   28  A    between atoms: _67  and  _68
REMARK   29  A    between atoms: _73  and  _75
REMARK   30  A    between atoms: _75  and  _76
REMARK   31  A    between atoms: _75  and  _78
REMARK   32  A    between atoms: _78  and  _79
REMARK   33  A    between atoms: _79  and  _80
REMARK   34  A    between atoms: _80  and  _81
REMARK   35  A    between atoms: _90  and  _92
REMARK   36  A    between atoms: _92  and  _93
REMARK   37  A    between atoms: _92  and  _95
REMARK   38  A    between atoms: _95  and  _96
REMARK   39  A    between atoms: _99  and  _101
REMARK   40  A    between atoms: _101  and  _102
REMARK   41  A    between atoms: _101  and  _104
REMARK   42  A    between atoms: _104  and  _105
REMARK   43  A    between atoms: _110  and  _112
REMARK   44  A    between atoms: _112  and  _113
REMARK   45  A    between atoms: _112  and  _115
REMARK   46  A    between atoms: _115  and  _116
REMARK   47  A    between atoms: _119  and  _121
REMARK   48  A    between atoms: _121  and  _122
REMARK   49  A    between atoms: _121  and  _124
REMARK   50  A    between atoms: _124  and  _125
REMARK   51  A    between atoms: _128  and  _130
REMARK   52  A    between atoms: _130  and  _131
REMARK   53  A    between atoms: _130  and  _133
REMARK   54  A    between atoms: _133  and  _134
REMARK   55  A    between atoms: _139  and  _141
REMARK   56  A    between atoms: _141  and  _142
REMARK   57  A    between atoms: _141  and  _144
REMARK   58  A    between atoms: _144  and  _145
REMARK   59  A    between atoms: _148  and  _150
REMARK   60  A    between atoms: _150  and  _151
REMARK   61  A    between atoms: _150  and  _153
REMARK   62  A    between atoms: _153  and  _154
REMARK   63  A    between atoms: _157  and  _159
REMARK   64  A    between atoms: _159  and  _160
REMARK   65  A    between atoms: _162  and  _164
REMARK   66  A    between atoms: _164  and  _165
REMARK   67  A    between atoms: _168  and  _170
REMARK   68  A    between atoms: _170  and  _171
REMARK   69  A    between atoms: _173  and  _175
REMARK   70  A    between atoms: _175  and  _176
REMARK   71  A    between atoms: _179  and  _181
REMARK   72  A    between atoms: _181  and  _182
REMARK   73  A    between atoms: _181  and  _184
REMARK   74  A    between atoms: _184  and  _185
REMARK   75  A    between atoms: _185  and  _186
REMARK   76  A    between atoms: _186  and  _187
REMARK   77  A    between atoms: _187  and  _188
REMARK   78  A    between atoms: _193  and  _194
REMARK   79  A    between atoms: _199  and  _201
REMARK   80  A    between atoms: _201  and  _202
REMARK   81  A    between atoms: _201  and  _204
REMARK   82  A    between atoms: _207  and  _209
REMARK   83  A    between atoms: _209  and  _210
REMARK   84  A    between atoms: _212  and  _214
REMARK   85  A    between atoms: _214  and  _215
REMARK   86  A    between atoms: _214  and  _217
REMARK   87  A    between atoms: _217  and  _218
REMARK   88  A    between atoms: _220  and  _222
REMARK   89  A    between atoms: _222  and  _223
REMARK   90  A    between atoms: _226  and  _228
REMARK   91  A    between atoms: _228  and  _229
REMARK   92  A    between atoms: _231  and  _233
REMARK   93  A    between atoms: _233  and  _234
REMARK   94  A    between atoms: _233  and  _236
REMARK   95  A    between atoms: _236  and  _237
REMARK   96  A    between atoms: _240  and  _242
REMARK   97  A    between atoms: _242  and  _243
REMARK   98  A    between atoms: _245  and  _247
REMARK   99  A    between atoms: _247  and  _248
REMARK  100  A    between atoms: _250  and  _252
REMARK  101  A    between atoms: _252  and  _253
REMARK  102  A    between atoms: _255  and  _257
REMARK  103  A    between atoms: _257  and  _258
REMARK  104  A    between atoms: _257  and  _260
REMARK  105  A    between atoms: _260  and  _261
REMARK  106  A    between atoms: _264  and  _266
REMARK  107  A    between atoms: _266  and  _267
REMARK  108  A    between atoms: _269  and  _271
REMARK  109  A    between atoms: _271  and  _272
REMARK  110  A    between atoms: _271  and  _274
REMARK  111  A    between atoms: _274  and  _275
REMARK  112  A    between atoms: _278  and  _280
REMARK  113  A    between atoms: _280  and  _281
REMARK  114  A    between atoms: _283  and  _285
REMARK  115  A    between atoms: _285  and  _286
REMARK  116  A    between atoms: _289  and  _291
REMARK  117  A    between atoms: _291  and  _292
REMARK  118  A    between atoms: _295  and  _297
REMARK  119  A    between atoms: _297  and  _298
REMARK  120  A    between atoms: _297  and  _300
REMARK  121  A    between atoms: _300  and  _301
REMARK  122  A    between atoms: _304  and  _306
REMARK  123  A    between atoms: _306  and  _307
REMARK  124  A    between atoms: _306  and  _309
REMARK  125  A    between atoms: _309  and  _310
REMARK  126  A    between atoms: _314  and  _315
REMARK  127  A    between atoms: _320  and  _322
REMARK  128  A    between atoms: _322  and  _323
REMARK  129  A    between atoms: _322  and  _325
REMARK  130  A    between atoms: _325  and  _326
REMARK  131  A    between atoms: _332  and  _334
REMARK  132  A    between atoms: _334  and  _335
REMARK  133  A    between atoms: _334  and  _337
REMARK  134  A    between atoms: _337  and  _338
REMARK  135  A    between atoms: _344  and  _346
REMARK  136  A    between atoms: _346  and  _347
REMARK  137  A    between atoms: _346  and  _349
REMARK  138  A    between atoms: _349  and  _350
REMARK  139  A    between atoms: _350  and  _351
REMARK  140  A    between atoms: _354  and  _356
REMARK  141  A    between atoms: _356  and  _357
REMARK  142  A    between atoms: _356  and  _359
REMARK  143  A    between atoms: _359  and  _360
REMARK  144  A    between atoms: _360  and  _361
REMARK  145  A    between atoms: _361  and  _362
REMARK  146  A    between atoms: _362  and  _363
REMARK  147  A    between atoms: _367  and  _369
REMARK  148  A    between atoms: _369  and  _370
REMARK  149  A    between atoms: _369  and  _372
REMARK  150  A    between atoms: _372  and  _373
REMARK  151  A    between atoms: _373  and  _374
REMARK  152  A    between atoms: _376  and  _378
REMARK  153  A    between atoms: _378  and  _379
REMARK  154  A    between atoms: _378  and  _381
REMARK  155  A    between atoms: _381  and  _382
REMARK  156  A    between atoms: _382  and  _383
REMARK  157  A    between atoms: _383  and  _384
REMARK  158  A    between atoms: _384  and  _385
REMARK  159  A    between atoms: _389  and  _391
REMARK  160  A    between atoms: _391  and  _392
REMARK  161  A    between atoms: _395  and  _397
REMARK  162  A    between atoms: _397  and  _398
REMARK  163  A    between atoms: _397  and  _400
REMARK  164  A    between atoms: _400  and  _401
REMARK  165  A    between atoms: _406  and  _408
REMARK  166  A    between atoms: _408  and  _409
REMARK  167  A    between atoms: _408  and  _411
REMARK  168  A    between atoms: _411  and  _412
REMARK  169  A    between atoms: _415  and  _417
REMARK  170  A    between atoms: _417  and  _418
REMARK  171  A    between atoms: _417  and  _420
REMARK  172  A    between atoms: _420  and  _421
REMARK  173  A    between atoms: _424  and  _426
REMARK  174  A    between atoms: _426  and  _427
REMARK  175  A    between atoms: _426  and  _429
REMARK  176  A    between atoms: _429  and  _430
REMARK  177  A    between atoms: _430  and  _431
REMARK  178  A    between atoms: _431  and  _432
REMARK  179  A    between atoms: _432  and  _433
REMARK  180  A    between atoms: _437  and  _439
REMARK  181  A    between atoms: _439  and  _440
REMARK  182  A    between atoms: _443  and  _445
REMARK  183  A    between atoms: _445  and  _446
REMARK  184  A    between atoms: _445  and  _448
REMARK  185  A    between atoms: _448  and  _449
REMARK  186  A    between atoms: _455  and  _457
REMARK  187  A    between atoms: _457  and  _458
REMARK  188  A    between atoms: _457  and  _460
REMARK  189  A    between atoms: _461  and  _462
REMARK  190  A    between atoms: _462  and  _463
REMARK  191  A    between atoms: _463  and  _464
REMARK  192  A    between atoms: _468  and  _470
REMARK  193  A    between atoms: _470  and  _471
REMARK  194  A    between atoms: _470  and  _473
REMARK  195  A    between atoms: _474  and  _475
REMARK  196  A    between atoms: _478  and  _480
REMARK  197  A    between atoms: _480  and  _481
REMARK  198  A    between atoms: _480  and  _483
REMARK  199  A    between atoms: _486  and  _488
REMARK  200  A    between atoms: _488  and  _489
REMARK  201  A    between atoms: _488  and  _491
REMARK  202  A    between atoms: _491  and  _492
REMARK  203  A    between atoms: _495  and  _497
REMARK  204  A    between atoms: _497  and  _498
REMARK  205  A    between atoms: _497  and  _500
REMARK  206  A    between atoms: _500  and  _501
REMARK  207  A    between atoms: _503  and  _505
REMARK  208  A    between atoms: _505  and  _506
REMARK  209  A    between atoms: _505  and  _508
REMARK  210  A    between atoms: _511  and  _513
REMARK  211  A    between atoms: _513  and  _514
REMARK  212  A    between atoms: _513  and  _516
REMARK  213  A    between atoms: _516  and  _517
REMARK  214  A    between atoms: _520  and  _522
REMARK  215  A    between atoms: _522  and  _523
REMARK  216  A    between atoms: _522  and  _525
REMARK  217  A    between atoms: _525  and  _526
REMARK                            x       y       z     vdW  Elec       q    Type
REMARK                         _______ _______ _______ _____ _____    ______ ____
ROOT
ATOM      1  CA  ILE A   1       0.186 -11.305  24.184  0.00  0.00    +0.133 C 
ENDROOT
BRANCH   1   2
ATOM      2  N   ILE A   1      -0.138 -12.547  23.461  0.00  0.00    -0.239 NA
ATOM      3  H   ILE A   1      -0.469 -12.499  22.476  0.00  0.00    +0.142 HD
ENDBRANCH   1   2
BRANCH   1   4
ATOM      4  C   ILE A   1      -0.736 -11.111  25.393  0.00  0.00    +0.224 C 
ATOM      5  O   ILE A   1      -0.263 -10.811  26.510  0.00  0.00    -0.287 OA
ENDBRANCH   1   4
BRANCH   1   6
ATOM      6  CB  ILE A   1       0.157 -10.097  23.256  0.00  0.00    +0.023 C 
ATOM      7  CG2 ILE A   1       0.208  -8.752  24.058  0.00  0.00    +0.002 C 
BRANCH   6   8
ATOM      8  CG1 ILE A   1       1.310 -10.190  22.207  0.00  0.00    +0.002 C 
ATOM      9  CD1 ILE A   1       1.301  -9.107  21.141  0.00  0.00    +0.000 C 
ENDBRANCH   6   8
ENDBRANCH   1   6
TORSDOF 4
REMARK  Name = ../refined-set-2016/2r75/2r75_pocket.pdb
REMARK  217 active torsions:
REMARK  status: ('A' for Active; 'I' for Inactive)
REMARK    1  A    between atoms: _1  and  _3
REMARK    2  A    between atoms: _3  and  _4
REMARK    3  A    between atoms: _3  and  _6
REMARK    4  A    between atoms: _9  and  _11
REMARK    5  A    between atoms: _11  and  _12
REMARK    6  A    between atoms: _14  and  _16
REMARK    7  A    between atoms: _16  and  _17
REMARK    8  A    between atoms: _19  and  _21
REMARK    9  A    between atoms: _21  and  _22
REMARK   10  A    between atoms: _24  and  _26
REMARK   11  A    between atoms: _26  and  _27
REMARK   12  A    between atoms: _29  and  _31
REMARK   13  A    between atoms: _31  and  _32
REMARK   14  A    between atoms: _31  and  _34
REMARK   15  A    between atoms: _34  and  _35
REMARK   16  A    between atoms: _37  and  _39
REMARK   17  A    between atoms: _39  and  _40
REMARK   18  A    between atoms: _39  and  _42
REMARK   19  A    between atoms: _42  and  _43
REMARK   20  A    between atoms: _48  and  _50
REMARK   21  A    between atoms: _50  and  _51
REMARK   22  A    between atoms: _54  and  _56
REMARK   23  A    between atoms: _56  and  _57
REMARK   24  A    between atoms: _56  and  _59
REMARK   25  A    between atoms: _62  and  _64
REMARK   26  A    between atoms: _64  and  _65
REMARK   27  A    between atoms: _64  and  _67
REMARK   28  A    between atoms: _67  and  _68
REMARK   29  A    between atoms: _73  and  _75
REMARK   30  A    between atoms: _75  and  _76
REMARK   31  A    between atoms: _75  and  _78
REMARK   32  A    between atoms: _78  and  _79
REMARK   33  A    between atoms: _79  and  _80
REMARK   34  A    between atoms: _80  and  _81
REMARK   35  A    between atoms: _90  and  _92
REMARK   36  A    between atoms: _92  and  _93
REMARK   37  A    between atoms: _92  and  _95
REMARK   38  A    between atoms: _95  and  _96
REMARK   39  A    between atoms: _99  and  _101
REMARK   40  A    between atoms: _101  and  _102
REMARK   41  A    between atoms: _101  and  _104
REMARK   42  A    between atoms: _104  and  _105
REMARK   43  A    between atoms: _110  and  _112
REMARK   44  A    between atoms: _112  and  _113
REMARK   45  A    between atoms: _112  and  _115
REMARK   46  A    between atoms: _115  and  _116
REMARK   47  A    between atoms: _119  and  _121
REMARK   48  A    between atoms: _121  and  _122
REMARK   49  A    between atoms: _121  and  _124
REMARK   50  A    between atoms: _124  and  _125
REMARK   51  A    between atoms: _128  and  _130
REMARK   52  A    between atoms: _130  and  _131
REMARK   53  A    between atoms: _130  and  _133
REMARK   54  A    between atoms: _133  and  _134
REMARK   55  A    between atoms: _139  and  _141
REMARK   56  A    between atoms: _141  and  _142
REMARK   57  A    between atoms: _141  and  _144
REMARK   58  A    between atoms: _144  and  _145
REMARK   59  A    between atoms: _148  and  _150
REMARK   60  A    between atoms: _150  and  _151
REMARK   61  A    between atoms: _150  and  _153
REMARK   62  A    between atoms: _153  and  _154
REMARK   63  A    between atoms: _157  and  _159
REMARK   64  A    between atoms: _159  and  _160
REMARK   65  A    between atoms: _162  and  _164
REMARK   66  A    between atoms: _164  and  _165
REMARK   67  A    between atoms: _168  and  _170
REMARK   68  A    between atoms: _170  and  _171
REMARK   69  A    between atoms: _173  and  _175
REMARK   70  A    between atoms: _175  and  _176
REMARK   71  A    between atoms: _179  and  _181
REMARK   72  A    between atoms: _181  and  _182
REMARK   73  A    between atoms: _181  and  _184
REMARK   74  A    between atoms: _184  and  _185
REMARK   75  A    between atoms: _185  and  _186
REMARK   76  A    between atoms: _186  and  _187
REMARK   77  A    between atoms: _187  and  _188
REMARK   78  A    between atoms: _193  and  _194
REMARK   79  A    between atoms: _199  and  _201
REMARK   80  A    between atoms: _201  and  _202
REMARK   81  A    between atoms: _201  and  _204
REMARK   82  A    between atoms: _207  and  _209
REMARK   83  A    between atoms: _209  and  _210
REMARK   84  A    between atoms: _212  and  _214
REMARK   85  A    between atoms: _214  and  _215
REMARK   86  A    between atoms: _214  and  _217
REMARK   87  A    between atoms: _217  and  _218
REMARK   88  A    between atoms: _220  and  _222
REMARK   89  A    between atoms: _222  and  _223
REMARK   90  A    between atoms: _226  and  _228
REMARK   91  A    between atoms: _228  and  _229
REMARK   92  A    between atoms: _231  and  _233
REMARK   93  A    between atoms: _233  and  _234
REMARK   94  A    between atoms: _233  and  _236
REMARK   95  A    between atoms: _236  and  _237
REMARK   96  A    between atoms: _240  and  _242
REMARK   97  A    between atoms: _242  and  _243
REMARK   98  A    between atoms: _245  and  _247
REMARK   99  A    between atoms: _247  and  _248
REMARK  100  A    between atoms: _250  and  _252
REMARK  101  A    between atoms: _252  and  _253
REMARK  102  A    between atoms: _255  and  _257
REMARK  103  A    between atoms: _257  and  _258
REMARK  104  A    between atoms: _257  and  _260
REMARK  105  A    between atoms: _260  and  _261
REMARK  106  A    between atoms: _264  and  _266
REMARK  107  A    between atoms: _266  and  _267
REMARK  108  A    between atoms: _269  and  _271
REMARK  109  A    between atoms: _271  and  _272
REMARK  110  A    between atoms: _271  and  _274
REMARK  111  A    between atoms: _274  and  _275
REMARK  112  A    between atoms: _278  and  _280
REMARK  113  A    between atoms: _280  and  _281
REMARK  114  A    between atoms: _283  and  _285
REMARK  115  A    between atoms: _285  and  _286
REMARK  116  A    between atoms: _289  and  _291
REMARK  117  A    between atoms: _291  and  _292
REMARK  118  A    between atoms: _295  and  _297
REMARK  119  A    between atoms: _297  and  _298
REMARK  120  A    between atoms: _297  and  _300
REMARK  121  A    between atoms: _300  and  _301
REMARK  122  A    between atoms: _304  and  _306
REMARK  123  A    between atoms: _306  and  _307
REMARK  124  A    between atoms: _306  and  _309
REMARK  125  A    between atoms: _309  and  _310
REMARK  126  A    between atoms: _314  and  _315
REMARK  127  A    between atoms: _320  and  _322
REMARK  128  A    between atoms: _322  and  _323
REMARK  129  A    between atoms: _322  and  _325
REMARK  130  A    between atoms: _325  and  _326
REMARK  131  A    between atoms: _332  and  _334
REMARK  132  A    between atoms: _334  and  _335
REMARK  133  A    between atoms: _334  and  _337
REMARK  134  A    between atoms: _337  and  _338
REMARK  135  A    between atoms: _344  and  _346
REMARK  136  A    between atoms: _346  and  _347
REMARK  137  A    between atoms: _346  and  _349
REMARK  138  A    between atoms: _349  and  _350
REMARK  139  A    between atoms: _350  and  _351
REMARK  140  A    between atoms: _354  and  _356
REMARK  141  A    between atoms: _356  and  _357
REMARK  142  A    between atoms: _356  and  _359
REMARK  143  A    between atoms: _359  and  _360
REMARK  144  A    between atoms: _360  and  _361
REMARK  145  A    between atoms: _361  and  _362
REMARK  146  A    between atoms: _362  and  _363
REMARK  147  A    between atoms: _367  and  _369
REMARK  148  A    between atoms: _369  and  _370
REMARK  149  A    between atoms: _369  and  _372
REMARK  150  A    between atoms: _372  and  _373
REMARK  151  A    between atoms: _373  and  _374
REMARK  152  A    between atoms: _376  and  _378
REMARK  153  A    between atoms: _378  and  _379
REMARK  154  A    between atoms: _378  and  _381
REMARK  155  A    between atoms: _381  and  _382
REMARK  156  A    between atoms: _382  and  _383
REMARK  157  A    between atoms: _383  and  _384
REMARK  158  A    between atoms: _384  and  _385
REMARK  159  A    between atoms: _389  and  _391
REMARK  160  A    between atoms: _391  and  _392
REMARK  161  A    between atoms: _395  and  _397
REMARK  162  A    between atoms: _397  and  _398
REMARK  163  A    between atoms: _397  and  _400
REMARK  164  A    between atoms: _400  and  _401
REMARK  165  A    between atoms: _406  and  _408
REMARK  166  A    between atoms: _408  and  _409
REMARK  167  A    between atoms: _408  and  _411
REMARK  168  A    between atoms: _411  and  _412
REMARK  169  A    between atoms: _415  and  _417
REMARK  170  A    between atoms: _417  and  _418
REMARK  171  A    between atoms: _417  and  _420
REMARK  172  A    between atoms: _420  and  _421
REMARK  173  A    between atoms: _424  and  _426
REMARK  174  A    between atoms: _426  and  _427
REMARK  175  A    between atoms: _426  and  _429
REMARK  176  A    between atoms: _429  and  _430
REMARK  177  A    between atoms: _430  and  _431
REMARK  178  A    between atoms: _431  and  _432
REMARK  179  A    between atoms: _432  and  _433
REMARK  180  A    between atoms: _437  and  _439
REMARK  181  A    between atoms: _439  and  _440
REMARK  182  A    between atoms: _443  and  _445
REMARK  183  A    between atoms: _445  and  _446
REMARK  184  A    between atoms: _445  and  _448
REMARK  185  A    between atoms: _448  and  _449
REMARK  186  A    between atoms: _455  and  _457
REMARK  187  A    between atoms: _457  and  _458
REMARK  188  A    between atoms: _457  and  _460
REMARK  189  A    between atoms: _461  and  _462
REMARK  190  A    between atoms: _462  and  _463
REMARK  191  A    between atoms: _463  and  _464
REMARK  192  A    between atoms: _468  and  _470
REMARK  193  A    between atoms: _470  and  _471
REMARK  194  A    between atoms: _470  and  _473
REMARK  195  A    between atoms: _474  and  _475
REMARK  196  A    between atoms: _478  and  _480
REMARK  197  A    between atoms: _480  and  _481
REMARK  198  A    between atoms: _480  and  _483
REMARK  199  A    between atoms: _486  and  _488
REMARK  200  A    between atoms: _488  and  _489
REMARK  201  A    between atoms: _488  and  _491
REMARK  202  A    between atoms: _491  and  _492
REMARK  203  A    between atoms: _495  and  _497
REMARK  204  A    between atoms: _497  and  _498
REMARK  205  A    between atoms: _497  and  _500
REMARK  206  A    between atoms: _500  and  _501
REMARK  207  A    between atoms: _503  and  _505
REMARK  208  A    between atoms: _505  and  _506
REMARK  209  A    between atoms: _505  and  _508
REMARK  210  A    between atoms: _511  and  _513
REMARK  211  A    between atoms: _513  and  _514
REMARK  212  A    between atoms: _513  and  _516
REMARK  213  A    between atoms: _516  and  _517
REMARK  214  A    between atoms: _520  and  _522
REMARK  215  A    between atoms: _522  and  _523
REMARK  216  A    between atoms: _522  and  _525
REMARK  217  A    between atoms: _525  and  _526
REMARK                            x       y       z     vdW  Elec       q    Type
REMARK                         _______ _______ _______ _____ _____    ______ ____
ROOT
ATOM      1  C   ILE A   1      -9.019  -2.221  23.680  0.00  0.00    +0.238 C 
ATOM      2  N   LYS A   2      -9.203  -0.923  23.836  0.00  0.00    -0.298 N 
ATOM      3  H   LYS A   2     -10.138  -0.577  24.131  0.00  0.00    +0.150 HD
ATOM      4  O   ILE A   1      -7.968  -2.649  23.217  0.00  0.00    -0.274 OA
ENDROOT
BRANCH   1   5
ATOM      5  CA  ILE A   1     -10.161  -3.163  24.091  0.00  0.00    +0.145 C 
BRANCH   5   6
ATOM      6  N   ILE A   1     -10.841  -2.664  25.282  0.00  0.00    -0.238 NA
ATOM      7  H   ILE A   1     -11.849  -2.413  25.233  0.00  0.00    +0.142 HD
ENDBRANCH   5   6
BRANCH   5   8
ATOM      8  CB  ILE A   1     -11.202  -3.388  22.932  0.00  0.00    +0.025 C 
ATOM      9  CG2 ILE A   1     -10.558  -3.224  21.591  0.00  0.00    +0.002 C 
BRANCH   8  10
ATOM     10  CG1 ILE A   1     -11.985  -4.722  23.188  0.00  0.00    +0.002 C 
ATOM     11  CD1 ILE A   1     -12.743  -5.210  21.920  0.00  0.00    +0.000 C 
ENDBRANCH   8  10
ENDBRANCH   5   8
ENDBRANCH   1   5
BRANCH   2  12
ATOM     12  CA  LYS A   2      -8.141   0.031  23.608  0.00  0.00    +0.137 C 
BRANCH  12  13
ATOM     13  C   LYS A   2      -6.832  -0.370  24.327  0.00  0.00    +0.227 C 
ATOM     14  O   LYS A   2      -5.744  -0.379  23.730  0.00  0.00    -0.286 OA
ENDBRANCH  12  13
BRANCH  12  15
ATOM     15  CB  LYS A   2      -8.633   1.424  24.012  0.00  0.00    +0.028 C 
BRANCH  15  16
ATOM     16  CG  LYS A   2      -7.994   2.570  23.358  0.00  0.00    -0.000 C 
BRANCH  16  17
ATOM     17  CD  LYS A   2      -8.805   3.852  23.603  0.00  0.00    -0.024 C 
BRANCH  17  18
ATOM     18  CE  LYS A   2      -7.919   5.006  24.056  0.00  0.00    -0.086 C 
BRANCH  18  19
ATOM     19  NZ  LYS A   2      -8.599   6.354  23.982  0.00  0.00    +0.380 N 
ATOM     20  HZ1 LYS A   2      -9.442   6.350  24.592  0.00  0.00    -0.089 HD
ATOM     21  HZ2 LYS A   2      -7.940   7.091  24.304  0.00  0.00    -0.089 HD
ATOM     22  HZ3 LYS A   2      -8.882   6.545  22.999  0.00  0.00    -0.089 HD
ENDBRANCH  18  19
ENDBRANCH  17  18
ENDBRANCH  16  17
ENDBRANCH  15  16
ENDBRANCH  12  15
ENDBRANCH   2  12
TORSDOF 11
REMARK  Name = ../refined-set-2016/2r75/2r75_pocket.pdb
REMARK  217 active torsions:
REMARK  status: ('A' for Active; 'I' for Inactive)
REMARK    1  A    between atoms: _1  and  _3
REMARK    2  A    between atoms: _3  and  _4
REMARK    3  A    between atoms: _3  and  _6
REMARK    4  A    between atoms: _9  and  _11
REMARK    5  A    between atoms: _11  and  _12
REMARK    6  A    between atoms: _14  and  _16
REMARK    7  A    between atoms: _16  and  _17
REMARK    8  A    between atoms: _19  and  _21
REMARK    9  A    between atoms: _21  and  _22
REMARK   10  A    between atoms: _24  and  _26
REMARK   11  A    between atoms: _26  and  _27
REMARK   12  A    between atoms: _29  and  _31
REMARK   13  A    between atoms: _31  and  _32
REMARK   14  A    between atoms: _31  and  _34
REMARK   15  A    between atoms: _34  and  _35
REMARK   16  A    between atoms: _37  and  _39
REMARK   17  A    between atoms: _39  and  _40
REMARK   18  A    between atoms: _39  and  _42
REMARK   19  A    between atoms: _42  and  _43
REMARK   20  A    between atoms: _48  and  _50
REMARK   21  A    between atoms: _50  and  _51
REMARK   22  A    between atoms: _54  and  _56
REMARK   23  A    between atoms: _56  and  _57
REMARK   24  A    between atoms: _56  and  _59
REMARK   25  A    between atoms: _62  and  _64
REMARK   26  A    between atoms: _64  and  _65
REMARK   27  A    between atoms: _64  and  _67
REMARK   28  A    between atoms: _67  and  _68
REMARK   29  A    between atoms: _73  and  _75
REMARK   30  A    between atoms: _75  and  _76
REMARK   31  A    between atoms: _75  and  _78
REMARK   32  A    between atoms: _78  and  _79
REMARK   33  A    between atoms: _79  and  _80
REMARK   34  A    between atoms: _80  and  _81
REMARK   35  A    between atoms: _90  and  _92
REMARK   36  A    between atoms: _92  and  _93
REMARK   37  A    between atoms: _92  and  _95
REMARK   38  A    between atoms: _95  and  _96
REMARK   39  A    between atoms: _99  and  _101
REMARK   40  A    between atoms: _101  and  _102
REMARK   41  A    between atoms: _101  and  _104
REMARK   42  A    between atoms: _104  and  _105
REMARK   43  A    between atoms: _110  and  _112
REMARK   44  A    between atoms: _112  and  _113
REMARK   45  A    between atoms: _112  and  _115
REMARK   46  A    between atoms: _115  and  _116
REMARK   47  A    between atoms: _119  and  _121
REMARK   48  A    between atoms: _121  and  _122
REMARK   49  A    between atoms: _121  and  _124
REMARK   50  A    between atoms: _124  and  _125
REMARK   51  A    between atoms: _128  and  _130
REMARK   52  A    between atoms: _130  and  _131
REMARK   53  A    between atoms: _130  and  _133
REMARK   54  A    between atoms: _133  and  _134
REMARK   55  A    between atoms: _139  and  _141
REMARK   56  A    between atoms: _141  and  _142
REMARK   57  A    between atoms: _141  and  _144
REMARK   58  A    between atoms: _144  and  _145
REMARK   59  A    between atoms: _148  and  _150
REMARK   60  A    between atoms: _150  and  _151
REMARK   61  A    between atoms: _150  and  _153
REMARK   62  A    between atoms: _153  and  _154
REMARK   63  A    between atoms: _157  and  _159
REMARK   64  A    between atoms: _159  and  _160
REMARK   65  A    between atoms: _162  and  _164
REMARK   66  A    between atoms: _164  and  _165
REMARK   67  A    between atoms: _168  and  _170
REMARK   68  A    between atoms: _170  and  _171
REMARK   69  A    between atoms: _173  and  _175
REMARK   70  A    between atoms: _175  and  _176
REMARK   71  A    between atoms: _179  and  _181
REMARK   72  A    between atoms: _181  and  _182
REMARK   73  A    between atoms: _181  and  _184
REMARK   74  A    between atoms: _184  and  _185
REMARK   75  A    between atoms: _185  and  _186
REMARK   76  A    between atoms: _186  and  _187
REMARK   77  A    between atoms: _187  and  _188
REMARK   78  A    between atoms: _193  and  _194
REMARK   79  A    between atoms: _199  and  _201
REMARK   80  A    between atoms: _201  and  _202
REMARK   81  A    between atoms: _201  and  _204
REMARK   82  A    between atoms: _207  and  _209
REMARK   83  A    between atoms: _209  and  _210
REMARK   84  A    between atoms: _212  and  _214
REMARK   85  A    between atoms: _214  and  _215
REMARK   86  A    between atoms: _214  and  _217
REMARK   87  A    between atoms: _217  and  _218
REMARK   88  A    between atoms: _220  and  _222
REMARK   89  A    between atoms: _222  and  _223
REMARK   90  A    between atoms: _226  and  _228
REMARK   91  A    between atoms: _228  and  _229
REMARK   92  A    between atoms: _231  and  _233
REMARK   93  A    between atoms: _233  and  _234
REMARK   94  A    between atoms: _233  and  _236
REMARK   95  A    between atoms: _236  and  _237
REMARK   96  A    between atoms: _240  and  _242
REMARK   97  A    between atoms: _242  and  _243
REMARK   98  A    between atoms: _245  and  _247
REMARK   99  A    between atoms: _247  and  _248
REMARK  100  A    between atoms: _250  and  _252
REMARK  101  A    between atoms: _252  and  _253
REMARK  102  A    between atoms: _255  and  _257
REMARK  103  A    between atoms: _257  and  _258
REMARK  104  A    between atoms: _257  and  _260
REMARK  105  A    between atoms: _260  and  _261
REMARK  106  A    between atoms: _264  and  _266
REMARK  107  A    between atoms: _266  and  _267
REMARK  108  A    between atoms: _269  and  _271
REMARK  109  A    between atoms: _271  and  _272
REMARK  110  A    between atoms: _271  and  _274
REMARK  111  A    between atoms: _274  and  _275
REMARK  112  A    between atoms: _278  and  _280
REMARK  113  A    between atoms: _280  and  _281
REMARK  114  A    between atoms: _283  and  _285
REMARK  115  A    between atoms: _285  and  _286
REMARK  116  A    between atoms: _289  and  _291
REMARK  117  A    between atoms: _291  and  _292
REMARK  118  A    between atoms: _295  and  _297
REMARK  119  A    between atoms: _297  and  _298
REMARK  120  A    between atoms: _297  and  _300
REMARK  121  A    between atoms: _300  and  _301
REMARK  122  A    between atoms: _304  and  _306
REMARK  123  A    between atoms: _306  and  _307
REMARK  124  A    between atoms: _306  and  _309
REMARK  125  A    between atoms: _309  and  _310
REMARK  126  A    between atoms: _314  and  _315
REMARK  127  A    between atoms: _320  and  _322
REMARK  128  A    between atoms: _322  and  _323
REMARK  129  A    between atoms: _322  and  _325
REMARK  130  A    between atoms: _325  and  _326
REMARK  131  A    between atoms: _332  and  _334
REMARK  132  A    between atoms: _334  and  _335
REMARK  133  A    between atoms: _334  and  _337
REMARK  134  A    between atoms: _337  and  _338
REMARK  135  A    between atoms: _344  and  _346
REMARK  136  A    between atoms: _346  and  _347
REMARK  137  A    between atoms: _346  and  _349
REMARK  138  A    between atoms: _349  and  _350
REMARK  139  A    between atoms: _350  and  _351
REMARK  140  A    between atoms: _354  and  _356
REMARK  141  A    between atoms: _356  and  _357
REMARK  142  A    between atoms: _356  and  _359
REMARK  143  A    between atoms: _359  and  _360
REMARK  144  A    between atoms: _360  and  _361
REMARK  145  A    between atoms: _361  and  _362
REMARK  146  A    between atoms: _362  and  _363
REMARK  147  A    between atoms: _367  and  _369
REMARK  148  A    between atoms: _369  and  _370
REMARK  149  A    between atoms: _369  and  _372
REMARK  150  A    between atoms: _372  and  _373
REMARK  151  A    between atoms: _373  and  _374
REMARK  152  A    between atoms: _376  and  _378
REMARK  153  A    between atoms: _378  and  _379
REMARK  154  A    between atoms: _378  and  _381
REMARK  155  A    between atoms: _381  and  _382
REMARK  156  A    between atoms: _382  and  _383
REMARK  157  A    between atoms: _383  and  _384
REMARK  158  A    between atoms: _384  and  _385
REMARK  159  A    between atoms: _389  and  _391
REMARK  160  A    between atoms: _391  and  _392
REMARK  161  A    between atoms: _395  and  _397
REMARK  162  A    between atoms: _397  and  _398
REMARK  163  A    between atoms: _397  and  _400
REMARK  164  A    between atoms: _400  and  _401
REMARK  165  A    between atoms: _406  and  _408
REMARK  166  A    between atoms: _408  and  _409
REMARK  167  A    between atoms: _408  and  _411
REMARK  168  A    between atoms: _411  and  _412
REMARK  169  A    between atoms: _415  and  _417
REMARK  170  A    between atoms: _417  and  _418
REMARK  171  A    between atoms: _417  and  _420
REMARK  172  A    between atoms: _420  and  _421
REMARK  173  A    between atoms: _424  and  _426
REMARK  174  A    between atoms: _426  and  _427
REMARK  175  A    between atoms: _426  and  _429
REMARK  176  A    between atoms: _429  and  _430
REMARK  177  A    between atoms: _430  and  _431
REMARK  178  A    between atoms: _431  and  _432
REMARK  179  A    between atoms: _432  and  _433
REMARK  180  A    between atoms: _437  and  _439
REMARK  181  A    between atoms: _439  and  _440
REMARK  182  A    between atoms: _443  and  _445
REMARK  183  A    between atoms: _445  and  _446
REMARK  184  A    between atoms: _445  and  _448
REMARK  185  A    between atoms: _448  and  _449
REMARK  186  A    between atoms: _455  and  _457
REMARK  187  A    between atoms: _457  and  _458
REMARK  188  A    between atoms: _457  and  _460
REMARK  189  A    between atoms: _461  and  _462
REMARK  190  A    between atoms: _462  and  _463
REMARK  191  A    between atoms: _463  and  _464
REMARK  192  A    between atoms: _468  and  _470
REMARK  193  A    between atoms: _470  and  _471
REMARK  194  A    between atoms: _470  and  _473
REMARK  195  A    between atoms: _474  and  _475
REMARK  196  A    between atoms: _478  and  _480
REMARK  197  A    between atoms: _480  and  _481
REMARK  198  A    between atoms: _480  and  _483
REMARK  199  A    between atoms: _486  and  _488
REMARK  200  A    between atoms: _488  and  _489
REMARK  201  A    between atoms: _488  and  _491
REMARK  202  A    between atoms: _491  and  _492
REMARK  203  A    between atoms: _495  and  _497
REMARK  204  A    between atoms: _497  and  _498
REMARK  205  A    between atoms: _497  and  _500
REMARK  206  A    between atoms: _500  and  _501
REMARK  207  A    between atoms: _503  and  _505
REMARK  208  A    between atoms: _505  and  _506
REMARK  209  A    between atoms: _505  and  _508
REMARK  210  A    between atoms: _511  and  _513
REMARK  211  A    between atoms: _513  and  _514
REMARK  212  A    between atoms: _513  and  _516
REMARK  213  A    between atoms: _516  and  _517
REMARK  214  A    between atoms: _520  and  _522
REMARK  215  A    between atoms: _522  and  _523
REMARK  216  A    between atoms: _522  and  _525
REMARK  217  A    between atoms: _525  and  _526
REMARK                            x       y       z     vdW  Elec       q    Type
REMARK                         _______ _______ _______ _____ _____    ______ ____
ROOT
ATOM      1  CA  VAL A   5       0.075  -5.373  21.386  0.00  0.00    +0.149 C 
ENDROOT
BRANCH   1   2
ATOM      2  C   VAL A   5       1.048  -4.399  20.757  0.00  0.00    +0.241 C 
ATOM      3  N   ASP A   6       0.688  -3.125  20.690  0.00  0.00    -0.297 N 
ATOM      4  H   ASP A   6      -0.225  -2.828  21.089  0.00  0.00    +0.150 HD
ATOM      5  O   VAL A   5       2.140  -4.807  20.336  0.00  0.00    -0.273 OA
BRANCH   3   6
ATOM      6  CA  ASP A   6       1.560  -2.132  20.062  0.00  0.00    +0.160 C 
BRANCH   6   7
ATOM      7  C   ASP A   6       2.917  -2.084  20.792  0.00  0.00    +0.241 C 
ATOM      8  N   SER A   7       2.918  -2.184  22.124  0.00  0.00    -0.295 N 
ATOM      9  H   SER A   7       2.008  -2.284  22.618  0.00  0.00    +0.150 HD
ATOM     10  O   ASP A   6       3.951  -1.929  20.185  0.00  0.00    -0.273 OA
BRANCH   8  11
ATOM     11  CA  SER A   7       4.157  -2.158  22.922  0.00  0.00    +0.178 C 
BRANCH  11  12
ATOM     12  C   SER A   7       5.068  -3.287  22.531  0.00  0.00    +0.243 C 
ATOM     13  O   SER A   7       6.287  -3.073  22.405  0.00  0.00    -0.273 OA
ATOM     14  N   VAL A   8       4.504  -4.485  22.404  0.00  0.00    -0.297 N 
ATOM     15  H   VAL A   8       3.482  -4.586  22.570  0.00  0.00    +0.150 HD
BRANCH  14  16
ATOM     16  CA  VAL A   8       5.285  -5.660  22.037  0.00  0.00    +0.149 C 
BRANCH  16  17
ATOM     17  C   VAL A   8       5.843  -5.540  20.610  0.00  0.00    +0.241 C 
ATOM     18  O   VAL A   8       7.028  -5.794  20.356  0.00  0.00    -0.273 OA
ATOM     19  N   LEU A   9       4.997  -5.117  19.677  0.00  0.00    -0.297 N 
ATOM     20  H   LEU A   9       4.009  -4.907  19.925  0.00  0.00    +0.150 HD
BRANCH  19  21
ATOM     21  CA  LEU A   9       5.459  -4.948  18.304  0.00  0.00    +0.149 C 
BRANCH  21  22
ATOM     22  C   LEU A   9       6.569  -3.920  18.216  0.00  0.00    +0.241 C 
ATOM     23  N   SER A  10       6.440  -2.846  18.987  0.00  0.00    -0.296 N 
ATOM     24  H   SER A  10       5.587  -2.731  19.571  0.00  0.00    +0.150 HD
ATOM     25  O   LEU A   9       7.552  -4.107  17.483  0.00  0.00    -0.273 OA
BRANCH  23  26
ATOM     26  CA  SER A  10       7.476  -1.831  19.024  0.00  0.00    +0.166 C 
BRANCH  26  27
ATOM     27  CB  SER A  10       8.772  -2.325  19.594  0.00  0.00    +0.229 C 
ATOM     28  OG  SER A  10       9.832  -2.091  19.016  0.00  0.00    -0.286 OA
ENDBRANCH  26  27
BRANCH  26  29
ATOM     29  C   SER A  10       6.984  -0.622  19.809  0.00  0.00    +0.165 C 
BRANCH  29  30
ATOM     30  O   SER A  10       7.974   0.366  19.955  0.00  0.00    -0.380 OA
ATOM     31  H   SER A  10       7.606   1.127  20.470  0.00  0.00    +0.211 HD
ENDBRANCH  29  30
ENDBRANCH  26  29
ENDBRANCH  23  26
ENDBRANCH  21  22
BRANCH  21  32
ATOM     32  CB  LEU A   9       4.288  -4.504  17.405  0.00  0.00    +0.029 C 
BRANCH  32  33
ATOM     33  CG  LEU A   9       3.136  -5.496  17.252  0.00  0.00    +0.002 C 
ATOM     34  CD2 LEU A   9       1.961  -4.871  16.550  0.00  0.00    +0.000 C 
ATOM     35  CD1 LEU A   9       3.623  -6.733  16.515  0.00  0.00    +0.000 C 
ENDBRANCH  32  33
ENDBRANCH  21  32
ENDBRANCH  19  21
ENDBRANCH  16  17
BRANCH  16  36
ATOM     36  CB  VAL A   8       4.476  -6.949  22.218  0.00  0.00    +0.027 C 
ATOM     37  CG2 VAL A   8       4.215  -7.210  23.721  0.00  0.00    +0.002 C 
ATOM     38  CG1 VAL A   8       5.133  -8.153  21.552  0.00  0.00    +0.002 C 
ENDBRANCH  16  36
ENDBRANCH  14  16
ENDBRANCH  11  12
BRANCH  11  39
ATOM     39  CB  SER A   7       3.837  -2.249  24.425  0.00  0.00    +0.166 C 
BRANCH  39  40
ATOM     40  OG  SER A   7       5.021  -2.186  25.199  0.00  0.00    -0.380 OA
ATOM     41  H   SER A   7       5.615  -2.939  24.954  0.00  0.00    +0.211 HD
ENDBRANCH  39  40
ENDBRANCH  11  39
ENDBRANCH   8  11
ENDBRANCH   6   7
BRANCH   6  42
ATOM     42  CB  ASP A   6       1.024  -0.671  20.145  0.00  0.00    +0.143 C 
BRANCH  42  43
ATOM     43  CG  ASP A   6      -0.259  -0.334  19.373  0.00  0.00    +0.367 C 
ATOM     44  OD2 ASP A   6      -0.852   0.756  19.712  0.00  0.00    -0.246 OA
ATOM     45  OD1 ASP A   6      -0.652  -0.980  18.432  0.00  0.00    -0.246 OA
ENDBRANCH  42  43
ENDBRANCH   6  42
ENDBRANCH   3   6
ENDBRANCH   1   2
BRANCH   1  48
ATOM     46  C   GLU A   4       0.432  -4.588  23.673  0.00  0.00    +0.245 C 
ATOM     47  O   GLU A   4       1.621  -4.848  23.604  0.00  0.00    -0.273 OA
ATOM     48  N   VAL A   5      -0.406  -4.846  22.687  0.00  0.00    -0.297 N 
ATOM     49  H   VAL A   5      -1.423  -4.677  22.824  0.00  0.00    +0.150 HD
BRANCH  46  50
ATOM     50  CA  GLU A   4      -0.152  -3.960  24.943  0.00  0.00    +0.172 C 
BRANCH  50  52
ATOM     51  C   LYS A   3      -0.758  -1.811  23.927  0.00  0.00    +0.245 C 
ATOM     52  N   GLU A   4      -1.136  -2.934  24.569  0.00  0.00    -0.293 N 
ATOM     53  H   GLU A   4      -2.139  -3.077  24.803  0.00  0.00    +0.150 HD
ATOM     54  O   LYS A   3       0.429  -1.591  23.616  0.00  0.00    -0.273 OA
BRANCH  51  55
ATOM     55  CA  LYS A   3      -1.818  -0.797  23.521  0.00  0.00    +0.171 C 
BRANCH  55  57
ATOM     56  C   PHE A   2      -3.025  -2.329  22.061  0.00  0.00    +0.241 C 
ATOM     57  N   LYS A   3      -3.032  -1.483  23.087  0.00  0.00    -0.294 N 
ATOM     58  H   LYS A   3      -3.923  -1.306  23.592  0.00  0.00    +0.150 HD
ATOM     59  O   PHE A   2      -2.043  -2.461  21.336  0.00  0.00    -0.273 OA
BRANCH  56  60
ATOM     60  CA  PHE A   2      -4.245  -3.133  21.762  0.00  0.00    +0.153 C 
BRANCH  60  63
ATOM     61  C   ALA A   1      -4.654  -4.334  23.826  0.00  0.00    +0.238 C 
ATOM     62  O   ALA A   1      -3.591  -4.938  23.691  0.00  0.00    -0.274 OA
ATOM     63  N   PHE A   2      -5.083  -3.461  22.926  0.00  0.00    -0.297 N 
ATOM     64  H   PHE A   2      -6.012  -3.008  23.042  0.00  0.00    +0.150 HD
BRANCH  61  65
ATOM     65  CA  ALA A   1      -5.568  -4.578  25.028  0.00  0.00    +0.145 C 
ATOM     66  CB  ALA A   1      -6.708  -5.508  24.625  0.00  0.00    +0.028 C 
BRANCH  65  67
ATOM     67  N   ALA A   1      -6.056  -3.314  25.542  0.00  0.00    -0.238 NA
ATOM     68  H   ALA A   1      -7.078  -3.125  25.563  0.00  0.00    +0.142 HD
ENDBRANCH  65  67
ENDBRANCH  61  65
ENDBRANCH  60  63
BRANCH  60  69
ATOM     69  CB  PHE A   2      -5.095  -2.518  20.667  0.00  0.00    +0.055 C 
BRANCH  69  70
ATOM     70  CG  PHE A   2      -5.921  -3.529  19.972  0.00  0.00    -0.020 A 
ATOM     71  CD2 PHE A   2      -7.288  -3.620  20.193  0.00  0.00    -0.004 A 
ATOM     72  CE2 PHE A   2      -8.056  -4.576  19.557  0.00  0.00    -0.000 A 
ATOM     73  CZ  PHE A   2      -7.450  -5.445  18.686  0.00  0.00    -0.000 A 
ATOM     74  CE1 PHE A   2      -6.077  -5.361  18.490  0.00  0.00    -0.000 A 
ATOM     75  CD1 PHE A   2      -5.327  -4.458  19.112  0.00  0.00    -0.004 A 
ENDBRANCH  69  70
ENDBRANCH  60  69
ENDBRANCH  56  60
ENDBRANCH  55  57
BRANCH  55  76
ATOM     76  CB  LYS A   3      -2.140   0.171  24.696  0.00  0.00    -0.002 C 
ATOM     77  CG  LYS A   3      -0.976   1.007  25.272  0.00  0.00    -0.031 C 
BRANCH  77  78
ATOM     78  CD  LYS A   3      -1.374   2.096  26.306  0.00  0.00    +0.002 C 
BRANCH  78  79
ATOM     79  CE  LYS A   3      -1.243   1.623  27.795  0.00  0.00    -0.081 C 
BRANCH  79  80
ATOM     80  NZ  LYS A   3      -1.727   2.613  28.883  0.00  0.00    +0.381 N 
ATOM     81  HZ1 LYS A   3      -1.590   2.188  29.822  0.00  0.00    -0.089 HD
ATOM     82  HZ2 LYS A   3      -1.179   3.495  28.816  0.00  0.00    -0.089 HD
ATOM     83  HZ3 LYS A   3      -2.736   2.819  28.739  0.00  0.00    -0.089 HD
ENDBRANCH  79  80
ENDBRANCH  78  79
ENDBRANCH  77  78
ENDBRANCH  55  76
ENDBRANCH  51  55
ENDBRANCH  50  52
BRANCH  50  84
ATOM     84  CB  GLU A   4      -0.782  -5.088  25.820  0.00  0.00    +0.009 C 
ATOM     85  CG  GLU A   4      -1.368  -4.670  27.201  0.00  0.00    +0.084 C 
BRANCH  85  86
ATOM     86  CD  GLU A   4      -1.929  -5.814  28.088  0.00  0.00    +0.388 C 
ATOM     87  OE2 GLU A   4      -1.912  -5.648  29.355  0.00  0.00    -0.241 OA
ATOM     88  OE1 GLU A   4      -2.415  -6.861  27.578  0.00  0.00    -0.241 OA
ENDBRANCH  85  86
ENDBRANCH  50  84
ENDBRANCH  46  50
ENDBRANCH   1  48
BRANCH   1  89
ATOM     89  CB  VAL A   5      -1.104  -5.685  20.419  0.00  0.00    +0.027 C 
ATOM     90  CG2 VAL A   5      -1.997  -6.778  21.030  0.00  0.00    +0.002 C 
ATOM     91  CG1 VAL A   5      -0.620  -6.111  19.061  0.00  0.00    +0.002 C 
ENDBRANCH   1  89
TORSDOF 38
REMARK  Name = ../refined-set-2016/2r75/2r75_pocket.pdb
REMARK  217 active torsions:
REMARK  status: ('A' for Active; 'I' for Inactive)
REMARK    1  A    between atoms: _1  and  _3
REMARK    2  A    between atoms: _3  and  _4
REMARK    3  A    between atoms: _3  and  _6
REMARK    4  A    between atoms: _9  and  _11
REMARK    5  A    between atoms: _11  and  _12
REMARK    6  A    between atoms: _14  and  _16
REMARK    7  A    between atoms: _16  and  _17
REMARK    8  A    between atoms: _19  and  _21
REMARK    9  A    between atoms: _21  and  _22
REMARK   10  A    between atoms: _24  and  _26
REMARK   11  A    between atoms: _26  and  _27
REMARK   12  A    between atoms: _29  and  _31
REMARK   13  A    between atoms: _31  and  _32
REMARK   14  A    between atoms: _31  and  _34
REMARK   15  A    between atoms: _34  and  _35
REMARK   16  A    between atoms: _37  and  _39
REMARK   17  A    between atoms: _39  and  _40
REMARK   18  A    between atoms: _39  and  _42
REMARK   19  A    between atoms: _42  and  _43
REMARK   20  A    between atoms: _48  and  _50
REMARK   21  A    between atoms: _50  and  _51
REMARK   22  A    between atoms: _54  and  _56
REMARK   23  A    between atoms: _56  and  _57
REMARK   24  A    between atoms: _56  and  _59
REMARK   25  A    between atoms: _62  and  _64
REMARK   26  A    between atoms: _64  and  _65
REMARK   27  A    between atoms: _64  and  _67
REMARK   28  A    between atoms: _67  and  _68
REMARK   29  A    between atoms: _73  and  _75
REMARK   30  A    between atoms: _75  and  _76
REMARK   31  A    between atoms: _75  and  _78
REMARK   32  A    between atoms: _78  and  _79
REMARK   33  A    between atoms: _79  and  _80
REMARK   34  A    between atoms: _80  and  _81
REMARK   35  A    between atoms: _90  and  _92
REMARK   36  A    between atoms: _92  and  _93
REMARK   37  A    between atoms: _92  and  _95
REMARK   38  A    between atoms: _95  and  _96
REMARK   39  A    between atoms: _99  and  _101
REMARK   40  A    between atoms: _101  and  _102
REMARK   41  A    between atoms: _101  and  _104
REMARK   42  A    between atoms: _104  and  _105
REMARK   43  A    between atoms: _110  and  _112
REMARK   44  A    between atoms: _112  and  _113
REMARK   45  A    between atoms: _112  and  _115
REMARK   46  A    between atoms: _115  and  _116
REMARK   47  A    between atoms: _119  and  _121
REMARK   48  A    between atoms: _121  and  _122
REMARK   49  A    between atoms: _121  and  _124
REMARK   50  A    between atoms: _124  and  _125
REMARK   51  A    between atoms: _128  and  _130
REMARK   52  A    between atoms: _130  and  _131
REMARK   53  A    between atoms: _130  and  _133
REMARK   54  A    between atoms: _133  and  _134
REMARK   55  A    between atoms: _139  and  _141
REMARK   56  A    between atoms: _141  and  _142
REMARK   57  A    between atoms: _141  and  _144
REMARK   58  A    between atoms: _144  and  _145
REMARK   59  A    between atoms: _148  and  _150
REMARK   60  A    between atoms: _150  and  _151
REMARK   61  A    between atoms: _150  and  _153
REMARK   62  A    between atoms: _153  and  _154
REMARK   63  A    between atoms: _157  and  _159
REMARK   64  A    between atoms: _159  and  _160
REMARK   65  A    between atoms: _162  and  _164
REMARK   66  A    between atoms: _164  and  _165
REMARK   67  A    between atoms: _168  and  _170
REMARK   68  A    between atoms: _170  and  _171
REMARK   69  A    between atoms: _173  and  _175
REMARK   70  A    between atoms: _175  and  _176
REMARK   71  A    between atoms: _179  and  _181
REMARK   72  A    between atoms: _181  and  _182
REMARK   73  A    between atoms: _181  and  _184
REMARK   74  A    between atoms: _184  and  _185
REMARK   75  A    between atoms: _185  and  _186
REMARK   76  A    between atoms: _186  and  _187
REMARK   77  A    between atoms: _187  and  _188
REMARK   78  A    between atoms: _193  and  _194
REMARK   79  A    between atoms: _199  and  _201
REMARK   80  A    between atoms: _201  and  _202
REMARK   81  A    between atoms: _201  and  _204
REMARK   82  A    between atoms: _207  and  _209
REMARK   83  A    between atoms: _209  and  _210
REMARK   84  A    between atoms: _212  and  _214
REMARK   85  A    between atoms: _214  and  _215
REMARK   86  A    between atoms: _214  and  _217
REMARK   87  A    between atoms: _217  and  _218
REMARK   88  A    between atoms: _220  and  _222
REMARK   89  A    between atoms: _222  and  _223
REMARK   90  A    between atoms: _226  and  _228
REMARK   91  A    between atoms: _228  and  _229
REMARK   92  A    between atoms: _231  and  _233
REMARK   93  A    between atoms: _233  and  _234
REMARK   94  A    between atoms: _233  and  _236
REMARK   95  A    between atoms: _236  and  _237
REMARK   96  A    between atoms: _240  and  _242
REMARK   97  A    between atoms: _242  and  _243
REMARK   98  A    between atoms: _245  and  _247
REMARK   99  A    between atoms: _247  and  _248
REMARK  100  A    between atoms: _250  and  _252
REMARK  101  A    between atoms: _252  and  _253
REMARK  102  A    between atoms: _255  and  _257
REMARK  103  A    between atoms: _257  and  _258
REMARK  104  A    between atoms: _257  and  _260
REMARK  105  A    between atoms: _260  and  _261
REMARK  106  A    between atoms: _264  and  _266
REMARK  107  A    between atoms: _266  and  _267
REMARK  108  A    between atoms: _269  and  _271
REMARK  109  A    between atoms: _271  and  _272
REMARK  110  A    between atoms: _271  and  _274
REMARK  111  A    between atoms: _274  and  _275
REMARK  112  A    between atoms: _278  and  _280
REMARK  113  A    between atoms: _280  and  _281
REMARK  114  A    between atoms: _283  and  _285
REMARK  115  A    between atoms: _285  and  _286
REMARK  116  A    between atoms: _289  and  _291
REMARK  117  A    between atoms: _291  and  _292
REMARK  118  A    between atoms: _295  and  _297
REMARK  119  A    between atoms: _297  and  _298
REMARK  120  A    between atoms: _297  and  _300
REMARK  121  A    between atoms: _300  and  _301
REMARK  122  A    between atoms: _304  and  _306
REMARK  123  A    between atoms: _306  and  _307
REMARK  124  A    between atoms: _306  and  _309
REMARK  125  A    between atoms: _309  and  _310
REMARK  126  A    between atoms: _314  and  _315
REMARK  127  A    between atoms: _320  and  _322
REMARK  128  A    between atoms: _322  and  _323
REMARK  129  A    between atoms: _322  and  _325
REMARK  130  A    between atoms: _325  and  _326
REMARK  131  A    between atoms: _332  and  _334
REMARK  132  A    between atoms: _334  and  _335
REMARK  133  A    between atoms: _334  and  _337
REMARK  134  A    between atoms: _337  and  _338
REMARK  135  A    between atoms: _344  and  _346
REMARK  136  A    between atoms: _346  and  _347
REMARK  137  A    between atoms: _346  and  _349
REMARK  138  A    between atoms: _349  and  _350
REMARK  139  A    between atoms: _350  and  _351
REMARK  140  A    between atoms: _354  and  _356
REMARK  141  A    between atoms: _356  and  _357
REMARK  142  A    between atoms: _356  and  _359
REMARK  143  A    between atoms: _359  and  _360
REMARK  144  A    between atoms: _360  and  _361
REMARK  145  A    between atoms: _361  and  _362
REMARK  146  A    between atoms: _362  and  _363
REMARK  147  A    between atoms: _367  and  _369
REMARK  148  A    between atoms: _369  and  _370
REMARK  149  A    between atoms: _369  and  _372
REMARK  150  A    between atoms: _372  and  _373
REMARK  151  A    between atoms: _373  and  _374
REMARK  152  A    between atoms: _376  and  _378
REMARK  153  A    between atoms: _378  and  _379
REMARK  154  A    between atoms: _378  and  _381
REMARK  155  A    between atoms: _381  and  _382
REMARK  156  A    between atoms: _382  and  _383
REMARK  157  A    between atoms: _383  and  _384
REMARK  158  A    between atoms: _384  and  _385
REMARK  159  A    between atoms: _389  and  _391
REMARK  160  A    between atoms: _391  and  _392
REMARK  161  A    between atoms: _395  and  _397
REMARK  162  A    between atoms: _397  and  _398
REMARK  163  A    between atoms: _397  and  _400
REMARK  164  A    between atoms: _400  and  _401
REMARK  165  A    between atoms: _406  and  _408
REMARK  166  A    between atoms: _408  and  _409
REMARK  167  A    between atoms: _408  and  _411
REMARK  168  A    between atoms: _411  and  _412
REMARK  169  A    between atoms: _415  and  _417
REMARK  170  A    between atoms: _417  and  _418
REMARK  171  A    between atoms: _417  and  _420
REMARK  172  A    between atoms: _420  and  _421
REMARK  173  A    between atoms: _424  and  _426
REMARK  174  A    between atoms: _426  and  _427
REMARK  175  A    between atoms: _426  and  _429
REMARK  176  A    between atoms: _429  and  _430
REMARK  177  A    between atoms: _430  and  _431
REMARK  178  A    between atoms: _431  and  _432
REMARK  179  A    between atoms: _432  and  _433
REMARK  180  A    between atoms: _437  and  _439
REMARK  181  A    between atoms: _439  and  _440
REMARK  182  A    between atoms: _443  and  _445
REMARK  183  A    between atoms: _445  and  _446
REMARK  184  A    between atoms: _445  and  _448
REMARK  185  A    between atoms: _448  and  _449
REMARK  186  A    between atoms: _455  and  _457
REMARK  187  A    between atoms: _457  and  _458
REMARK  188  A    between atoms: _457  and  _460
REMARK  189  A    between atoms: _461  and  _462
REMARK  190  A    between atoms: _462  and  _463
REMARK  191  A    between atoms: _463  and  _464
REMARK  192  A    between atoms: _468  and  _470
REMARK  193  A    between atoms: _470  and  _471
REMARK  194  A    between atoms: _470  and  _473
REMARK  195  A    between atoms: _474  and  _475
REMARK  196  A    between atoms: _478  and  _480
REMARK  197  A    between atoms: _480  and  _481
REMARK  198  A    between atoms: _480  and  _483
REMARK  199  A    between atoms: _486  and  _488
REMARK  200  A    between atoms: _488  and  _489
REMARK  201  A    between atoms: _488  and  _491
REMARK  202  A    between atoms: _491  and  _492
REMARK  203  A    between atoms: _495  and  _497
REMARK  204  A    between atoms: _497  and  _498
REMARK  205  A    between atoms: _497  and  _500
REMARK  206  A    between atoms: _500  and  _501
REMARK  207  A    between atoms: _503  and  _505
REMARK  208  A    between atoms: _505  and  _506
REMARK  209  A    between atoms: _505  and  _508
REMARK  210  A    between atoms: _511  and  _513
REMARK  211  A    between atoms: _513  and  _514
REMARK  212  A    between atoms: _513  and  _516
REMARK  213  A    between atoms: _516  and  _517
REMARK  214  A    between atoms: _520  and  _522
REMARK  215  A    between atoms: _522  and  _523
REMARK  216  A    between atoms: _522  and  _525
REMARK  217  A    between atoms: _525  and  _526
REMARK                            x       y       z     vdW  Elec       q    Type
REMARK                         _______ _______ _______ _____ _____    ______ ____
ROOT
ATOM      1 MG   UNL     1      -9.249   0.587   8.546  0.00  0.00    +0.000 Mg
ATOM      2  O   UNL     1      -9.660  -0.081  10.396  0.00  0.00    +0.000 OA
ATOM      3  O   UNL     1     -10.842   1.876   8.643  0.00  0.00    +0.000 OA
ENDROOT
TORSDOF 0
REMARK  Name = ../refined-set-2016/2r75/2r75_pocket.pdb
REMARK  217 active torsions:
REMARK  status: ('A' for Active; 'I' for Inactive)
REMARK    1  A    between atoms: _1  and  _3
REMARK    2  A    between atoms: _3  and  _4
REMARK    3  A    between atoms: _3  and  _6
REMARK    4  A    between atoms: _9  and  _11
REMARK    5  A    between atoms: _11  and  _12
REMARK    6  A    between atoms: _14  and  _16
REMARK    7  A    between atoms: _16  and  _17
REMARK    8  A    between atoms: _19  and  _21
REMARK    9  A    between atoms: _21  and  _22
REMARK   10  A    between atoms: _24  and  _26
REMARK   11  A    between atoms: _26  and  _27
REMARK   12  A    between atoms: _29  and  _31
REMARK   13  A    between atoms: _31  and  _32
REMARK   14  A    between atoms: _31  and  _34
REMARK   15  A    between atoms: _34  and  _35
REMARK   16  A    between atoms: _37  and  _39
REMARK   17  A    between atoms: _39  and  _40
REMARK   18  A    between atoms: _39  and  _42
REMARK   19  A    between atoms: _42  and  _43
REMARK   20  A    between atoms: _48  and  _50
REMARK   21  A    between atoms: _50  and  _51
REMARK   22  A    between atoms: _54  and  _56
REMARK   23  A    between atoms: _56  and  _57
REMARK   24  A    between atoms: _56  and  _59
REMARK   25  A    between atoms: _62  and  _64
REMARK   26  A    between atoms: _64  and  _65
REMARK   27  A    between atoms: _64  and  _67
REMARK   28  A    between atoms: _67  and  _68
REMARK   29  A    between atoms: _73  and  _75
REMARK   30  A    between atoms: _75  and  _76
REMARK   31  A    between atoms: _75  and  _78
REMARK   32  A    between atoms: _78  and  _79
REMARK   33  A    between atoms: _79  and  _80
REMARK   34  A    between atoms: _80  and  _81
REMARK   35  A    between atoms: _90  and  _92
REMARK   36  A    between atoms: _92  and  _93
REMARK   37  A    between atoms: _92  and  _95
REMARK   38  A    between atoms: _95  and  _96
REMARK   39  A    between atoms: _99  and  _101
REMARK   40  A    between atoms: _101  and  _102
REMARK   41  A    between atoms: _101  and  _104
REMARK   42  A    between atoms: _104  and  _105
REMARK   43  A    between atoms: _110  and  _112
REMARK   44  A    between atoms: _112  and  _113
REMARK   45  A    between atoms: _112  and  _115
REMARK   46  A    between atoms: _115  and  _116
REMARK   47  A    between atoms: _119  and  _121
REMARK   48  A    between atoms: _121  and  _122
REMARK   49  A    between atoms: _121  and  _124
REMARK   50  A    between atoms: _124  and  _125
REMARK   51  A    between atoms: _128  and  _130
REMARK   52  A    between atoms: _130  and  _131
REMARK   53  A    between atoms: _130  and  _133
REMARK   54  A    between atoms: _133  and  _134
REMARK   55  A    between atoms: _139  and  _141
REMARK   56  A    between atoms: _141  and  _142
REMARK   57  A    between atoms: _141  and  _144
REMARK   58  A    between atoms: _144  and  _145
REMARK   59  A    between atoms: _148  and  _150
REMARK   60  A    between atoms: _150  and  _151
REMARK   61  A    between atoms: _150  and  _153
REMARK   62  A    between atoms: _153  and  _154
REMARK   63  A    between atoms: _157  and  _159
REMARK   64  A    between atoms: _159  and  _160
REMARK   65  A    between atoms: _162  and  _164
REMARK   66  A    between atoms: _164  and  _165
REMARK   67  A    between atoms: _168  and  _170
REMARK   68  A    between atoms: _170  and  _171
REMARK   69  A    between atoms: _173  and  _175
REMARK   70  A    between atoms: _175  and  _176
REMARK   71  A    between atoms: _179  and  _181
REMARK   72  A    between atoms: _181  and  _182
REMARK   73  A    between atoms: _181  and  _184
REMARK   74  A    between atoms: _184  and  _185
REMARK   75  A    between atoms: _185  and  _186
REMARK   76  A    between atoms: _186  and  _187
REMARK   77  A    between atoms: _187  and  _188
REMARK   78  A    between atoms: _193  and  _194
REMARK   79  A    between atoms: _199  and  _201
REMARK   80  A    between atoms: _201  and  _202
REMARK   81  A    between atoms: _201  and  _204
REMARK   82  A    between atoms: _207  and  _209
REMARK   83  A    between atoms: _209  and  _210
REMARK   84  A    between atoms: _212  and  _214
REMARK   85  A    between atoms: _214  and  _215
REMARK   86  A    between atoms: _214  and  _217
REMARK   87  A    between atoms: _217  and  _218
REMARK   88  A    between atoms: _220  and  _222
REMARK   89  A    between atoms: _222  and  _223
REMARK   90  A    between atoms: _226  and  _228
REMARK   91  A    between atoms: _228  and  _229
REMARK   92  A    between atoms: _231  and  _233
REMARK   93  A    between atoms: _233  and  _234
REMARK   94  A    between atoms: _233  and  _236
REMARK   95  A    between atoms: _236  and  _237
REMARK   96  A    between atoms: _240  and  _242
REMARK   97  A    between atoms: _242  and  _243
REMARK   98  A    between atoms: _245  and  _247
REMARK   99  A    between atoms: _247  and  _248
REMARK  100  A    between atoms: _250  and  _252
REMARK  101  A    between atoms: _252  and  _253
REMARK  102  A    between atoms: _255  and  _257
REMARK  103  A    between atoms: _257  and  _258
REMARK  104  A    between atoms: _257  and  _260
REMARK  105  A    between atoms: _260  and  _261
REMARK  106  A    between atoms: _264  and  _266
REMARK  107  A    between atoms: _266  and  _267
REMARK  108  A    between atoms: _269  and  _271
REMARK  109  A    between atoms: _271  and  _272
REMARK  110  A    between atoms: _271  and  _274
REMARK  111  A    between atoms: _274  and  _275
REMARK  112  A    between atoms: _278  and  _280
REMARK  113  A    between atoms: _280  and  _281
REMARK  114  A    between atoms: _283  and  _285
REMARK  115  A    between atoms: _285  and  _286
REMARK  116  A    between atoms: _289  and  _291
REMARK  117  A    between atoms: _291  and  _292
REMARK  118  A    between atoms: _295  and  _297
REMARK  119  A    between atoms: _297  and  _298
REMARK  120  A    between atoms: _297  and  _300
REMARK  121  A    between atoms: _300  and  _301
REMARK  122  A    between atoms: _304  and  _306
REMARK  123  A    between atoms: _306  and  _307
REMARK  124  A    between atoms: _306  and  _309
REMARK  125  A    between atoms: _309  and  _310
REMARK  126  A    between atoms: _314  and  _315
REMARK  127  A    between atoms: _320  and  _322
REMARK  128  A    between atoms: _322  and  _323
REMARK  129  A    between atoms: _322  and  _325
REMARK  130  A    between atoms: _325  and  _326
REMARK  131  A    between atoms: _332  and  _334
REMARK  132  A    between atoms: _334  and  _335
REMARK  133  A    between atoms: _334  and  _337
REMARK  134  A    between atoms: _337  and  _338
REMARK  135  A    between atoms: _344  and  _346
REMARK  136  A    between atoms: _346  and  _347
REMARK  137  A    between atoms: _346  and  _349
REMARK  138  A    between atoms: _349  and  _350
REMARK  139  A    between atoms: _350  and  _351
REMARK  140  A    between atoms: _354  and  _356
REMARK  141  A    between atoms: _356  and  _357
REMARK  142  A    between atoms: _356  and  _359
REMARK  143  A    between atoms: _359  and  _360
REMARK  144  A    between atoms: _360  and  _361
REMARK  145  A    between atoms: _361  and  _362
REMARK  146  A    between atoms: _362  and  _363
REMARK  147  A    between atoms: _367  and  _369
REMARK  148  A    between atoms: _369  and  _370
REMARK  149  A    between atoms: _369  and  _372
REMARK  150  A    between atoms: _372  and  _373
REMARK  151  A    between atoms: _373  and  _374
REMARK  152  A    between atoms: _376  and  _378
REMARK  153  A    between atoms: _378  and  _379
REMARK  154  A    between atoms: _378  and  _381
REMARK  155  A    between atoms: _381  and  _382
REMARK  156  A    between atoms: _382  and  _383
REMARK  157  A    between atoms: _383  and  _384
REMARK  158  A    between atoms: _384  and  _385
REMARK  159  A    between atoms: _389  and  _391
REMARK  160  A    between atoms: _391  and  _392
REMARK  161  A    between atoms: _395  and  _397
REMARK  162  A    between atoms: _397  and  _398
REMARK  163  A    between atoms: _397  and  _400
REMARK  164  A    between atoms: _400  and  _401
REMARK  165  A    between atoms: _406  and  _408
REMARK  166  A    between atoms: _408  and  _409
REMARK  167  A    between atoms: _408  and  _411
REMARK  168  A    between atoms: _411  and  _412
REMARK  169  A    between atoms: _415  and  _417
REMARK  170  A    between atoms: _417  and  _418
REMARK  171  A    between atoms: _417  and  _420
REMARK  172  A    between atoms: _420  and  _421
REMARK  173  A    between atoms: _424  and  _426
REMARK  174  A    between atoms: _426  and  _427
REMARK  175  A    between atoms: _426  and  _429
REMARK  176  A    between atoms: _429  and  _430
REMARK  177  A    between atoms: _430  and  _431
REMARK  178  A    between atoms: _431  and  _432
REMARK  179  A    between atoms: _432  and  _433
REMARK  180  A    between atoms: _437  and  _439
REMARK  181  A    between atoms: _439  and  _440
REMARK  182  A    between atoms: _443  and  _445
REMARK  183  A    between atoms: _445  and  _446
REMARK  184  A    between atoms: _445  and  _448
REMARK  185  A    between atoms: _448  and  _449
REMARK  186  A    between atoms: _455  and  _457
REMARK  187  A    between atoms: _457  and  _458
REMARK  188  A    between atoms: _457  and  _460
REMARK  189  A    between atoms: _461  and  _462
REMARK  190  A    between atoms: _462  and  _463
REMARK  191  A    between atoms: _463  and  _464
REMARK  192  A    between atoms: _468  and  _470
REMARK  193  A    between atoms: _470  and  _471
REMARK  194  A    between atoms: _470  and  _473
REMARK  195  A    between atoms: _474  and  _475
REMARK  196  A    between atoms: _478  and  _480
REMARK  197  A    between atoms: _480  and  _481
REMARK  198  A    between atoms: _480  and  _483
REMARK  199  A    between atoms: _486  and  _488
REMARK  200  A    between atoms: _488  and  _489
REMARK  201  A    between atoms: _488  and  _491
REMARK  202  A    between atoms: _491  and  _492
REMARK  203  A    between atoms: _495  and  _497
REMARK  204  A    between atoms: _497  and  _498
REMARK  205  A    between atoms: _497  and  _500
REMARK  206  A    between atoms: _500  and  _501
REMARK  207  A    between atoms: _503  and  _505
REMARK  208  A    between atoms: _505  and  _506
REMARK  209  A    between atoms: _505  and  _508
REMARK  210  A    between atoms: _511  and  _513
REMARK  211  A    between atoms: _513  and  _514
REMARK  212  A    between atoms: _513  and  _516
REMARK  213  A    between atoms: _516  and  _517
REMARK  214  A    between atoms: _520  and  _522
REMARK  215  A    between atoms: _522  and  _523
REMARK  216  A    between atoms: _522  and  _525
REMARK  217  A    between atoms: _525  and  _526
REMARK                            x       y       z     vdW  Elec       q    Type
REMARK                         _______ _______ _______ _____ _____    ______ ____
ROOT
ATOM      1  O   HOH     1      -4.604  -8.822  13.958  0.00  0.00    +0.000 OA
ENDROOT
TORSDOF 0
REMARK  Name = ../refined-set-2016/2r75/2r75_pocket.pdb
REMARK  217 active torsions:
REMARK  status: ('A' for Active; 'I' for Inactive)
REMARK    1  A    between atoms: _1  and  _3
REMARK    2  A    between atoms: _3  and  _4
REMARK    3  A    between atoms: _3  and  _6
REMARK    4  A    between atoms: _9  and  _11
REMARK    5  A    between atoms: _11  and  _12
REMARK    6  A    between atoms: _14  and  _16
REMARK    7  A    between atoms: _16  and  _17
REMARK    8  A    between atoms: _19  and  _21
REMARK    9  A    between atoms: _21  and  _22
REMARK   10  A    between atoms: _24  and  _26
REMARK   11  A    between atoms: _26  and  _27
REMARK   12  A    between atoms: _29  and  _31
REMARK   13  A    between atoms: _31  and  _32
REMARK   14  A    between atoms: _31  and  _34
REMARK   15  A    between atoms: _34  and  _35
REMARK   16  A    between atoms: _37  and  _39
REMARK   17  A    between atoms: _39  and  _40
REMARK   18  A    between atoms: _39  and  _42
REMARK   19  A    between atoms: _42  and  _43
REMARK   20  A    between atoms: _48  and  _50
REMARK   21  A    between atoms: _50  and  _51
REMARK   22  A    between atoms: _54  and  _56
REMARK   23  A    between atoms: _56  and  _57
REMARK   24  A    between atoms: _56  and  _59
REMARK   25  A    between atoms: _62  and  _64
REMARK   26  A    between atoms: _64  and  _65
REMARK   27  A    between atoms: _64  and  _67
REMARK   28  A    between atoms: _67  and  _68
REMARK   29  A    between atoms: _73  and  _75
REMARK   30  A    between atoms: _75  and  _76
REMARK   31  A    between atoms: _75  and  _78
REMARK   32  A    between atoms: _78  and  _79
REMARK   33  A    between atoms: _79  and  _80
REMARK   34  A    between atoms: _80  and  _81
REMARK   35  A    between atoms: _90  and  _92
REMARK   36  A    between atoms: _92  and  _93
REMARK   37  A    between atoms: _92  and  _95
REMARK   38  A    between atoms: _95  and  _96
REMARK   39  A    between atoms: _99  and  _101
REMARK   40  A    between atoms: _101  and  _102
REMARK   41  A    between atoms: _101  and  _104
REMARK   42  A    between atoms: _104  and  _105
REMARK   43  A    between atoms: _110  and  _112
REMARK   44  A    between atoms: _112  and  _113
REMARK   45  A    between atoms: _112  and  _115
REMARK   46  A    between atoms: _115  and  _116
REMARK   47  A    between atoms: _119  and  _121
REMARK   48  A    between atoms: _121  and  _122
REMARK   49  A    between atoms: _121  and  _124
REMARK   50  A    between atoms: _124  and  _125
REMARK   51  A    between atoms: _128  and  _130
REMARK   52  A    between atoms: _130  and  _131
REMARK   53  A    between atoms: _130  and  _133
REMARK   54  A    between atoms: _133  and  _134
REMARK   55  A    between atoms: _139  and  _141
REMARK   56  A    between atoms: _141  and  _142
REMARK   57  A    between atoms: _141  and  _144
REMARK   58  A    between atoms: _144  and  _145
REMARK   59  A    between atoms: _148  and  _150
REMARK   60  A    between atoms: _150  and  _151
REMARK   61  A    between atoms: _150  and  _153
REMARK   62  A    between atoms: _153  and  _154
REMARK   63  A    between atoms: _157  and  _159
REMARK   64  A    between atoms: _159  and  _160
REMARK   65  A    between atoms: _162  and  _164
REMARK   66  A    between atoms: _164  and  _165
REMARK   67  A    between atoms: _168  and  _170
REMARK   68  A    between atoms: _170  and  _171
REMARK   69  A    between atoms: _173  and  _175
REMARK   70  A    between atoms: _175  and  _176
REMARK   71  A    between atoms: _179  and  _181
REMARK   72  A    between atoms: _181  and  _182
REMARK   73  A    between atoms: _181  and  _184
REMARK   74  A    between atoms: _184  and  _185
REMARK   75  A    between atoms: _185  and  _186
REMARK   76  A    between atoms: _186  and  _187
REMARK   77  A    between atoms: _187  and  _188
REMARK   78  A    between atoms: _193  and  _194
REMARK   79  A    between atoms: _199  and  _201
REMARK   80  A    between atoms: _201  and  _202
REMARK   81  A    between atoms: _201  and  _204
REMARK   82  A    between atoms: _207  and  _209
REMARK   83  A    between atoms: _209  and  _210
REMARK   84  A    between atoms: _212  and  _214
REMARK   85  A    between atoms: _214  and  _215
REMARK   86  A    between atoms: _214  and  _217
REMARK   87  A    between atoms: _217  and  _218
REMARK   88  A    between atoms: _220  and  _222
REMARK   89  A    between atoms: _222  and  _223
REMARK   90  A    between atoms: _226  and  _228
REMARK   91  A    between atoms: _228  and  _229
REMARK   92  A    between atoms: _231  and  _233
REMARK   93  A    between atoms: _233  and  _234
REMARK   94  A    between atoms: _233  and  _236
REMARK   95  A    between atoms: _236  and  _237
REMARK   96  A    between atoms: _240  and  _242
REMARK   97  A    between atoms: _242  and  _243
REMARK   98  A    between atoms: _245  and  _247
REMARK   99  A    between atoms: _247  and  _248
REMARK  100  A    between atoms: _250  and  _252
REMARK  101  A    between atoms: _252  and  _253
REMARK  102  A    between atoms: _255  and  _257
REMARK  103  A    between atoms: _257  and  _258
REMARK  104  A    between atoms: _257  and  _260
REMARK  105  A    between atoms: _260  and  _261
REMARK  106  A    between atoms: _264  and  _266
REMARK  107  A    between atoms: _266  and  _267
REMARK  108  A    between atoms: _269  and  _271
REMARK  109  A    between atoms: _271  and  _272
REMARK  110  A    between atoms: _271  and  _274
REMARK  111  A    between atoms: _274  and  _275
REMARK  112  A    between atoms: _278  and  _280
REMARK  113  A    between atoms: _280  and  _281
REMARK  114  A    between atoms: _283  and  _285
REMARK  115  A    between atoms: _285  and  _286
REMARK  116  A    between atoms: _289  and  _291
REMARK  117  A    between atoms: _291  and  _292
REMARK  118  A    between atoms: _295  and  _297
REMARK  119  A    between atoms: _297  and  _298
REMARK  120  A    between atoms: _297  and  _300
REMARK  121  A    between atoms: _300  and  _301
REMARK  122  A    between atoms: _304  and  _306
REMARK  123  A    between atoms: _306  and  _307
REMARK  124  A    between atoms: _306  and  _309
REMARK  125  A    between atoms: _309  and  _310
REMARK  126  A    between atoms: _314  and  _315
REMARK  127  A    between atoms: _320  and  _322
REMARK  128  A    between atoms: _322  and  _323
REMARK  129  A    between atoms: _322  and  _325
REMARK  130  A    between atoms: _325  and  _326
REMARK  131  A    between atoms: _332  and  _334
REMARK  132  A    between atoms: _334  and  _335
REMARK  133  A    between atoms: _334  and  _337
REMARK  134  A    between atoms: _337  and  _338
REMARK  135  A    between atoms: _344  and  _346
REMARK  136  A    between atoms: _346  and  _347
REMARK  137  A    between atoms: _346  and  _349
REMARK  138  A    between atoms: _349  and  _350
REMARK  139  A    between atoms: _350  and  _351
REMARK  140  A    between atoms: _354  and  _356
REMARK  141  A    between atoms: _356  and  _357
REMARK  142  A    between atoms: _356  and  _359
REMARK  143  A    between atoms: _359  and  _360
REMARK  144  A    between atoms: _360  and  _361
REMARK  145  A    between atoms: _361  and  _362
REMARK  146  A    between atoms: _362  and  _363
REMARK  147  A    between atoms: _367  and  _369
REMARK  148  A    between atoms: _369  and  _370
REMARK  149  A    between atoms: _369  and  _372
REMARK  150  A    between atoms: _372  and  _373
REMARK  151  A    between atoms: _373  and  _374
REMARK  152  A    between atoms: _376  and  _378
REMARK  153  A    between atoms: _378  and  _379
REMARK  154  A    between atoms: _378  and  _381
REMARK  155  A    between atoms: _381  and  _382
REMARK  156  A    between atoms: _382  and  _383
REMARK  157  A    between atoms: _383  and  _384
REMARK  158  A    between atoms: _384  and  _385
REMARK  159  A    between atoms: _389  and  _391
REMARK  160  A    between atoms: _391  and  _392
REMARK  161  A    between atoms: _395  and  _397
REMARK  162  A    between atoms: _397  and  _398
REMARK  163  A    between atoms: _397  and  _400
REMARK  164  A    between atoms: _400  and  _401
REMARK  165  A    between atoms: _406  and  _408
REMARK  166  A    between atoms: _408  and  _409
REMARK  167  A    between atoms: _408  and  _411
REMARK  168  A    between atoms: _411  and  _412
REMARK  169  A    between atoms: _415  and  _417
REMARK  170  A    between atoms: _417  and  _418
REMARK  171  A    between atoms: _417  and  _420
REMARK  172  A    between atoms: _420  and  _421
REMARK  173  A    between atoms: _424  and  _426
REMARK  174  A    between atoms: _426  and  _427
REMARK  175  A    between atoms: _426  and  _429
REMARK  176  A    between atoms: _429  and  _430
REMARK  177  A    between atoms: _430  and  _431
REMARK  178  A    between atoms: _431  and  _432
REMARK  179  A    between atoms: _432  and  _433
REMARK  180  A    between atoms: _437  and  _439
REMARK  181  A    between atoms: _439  and  _440
REMARK  182  A    between atoms: _443  and  _445
REMARK  183  A    between atoms: _445  and  _446
REMARK  184  A    between atoms: _445  and  _448
REMARK  185  A    between atoms: _448  and  _449
REMARK  186  A    between atoms: _455  and  _457
REMARK  187  A    between atoms: _457  and  _458
REMARK  188  A    between atoms: _457  and  _460
REMARK  189  A    between atoms: _461  and  _462
REMARK  190  A    between atoms: _462  and  _463
REMARK  191  A    between atoms: _463  and  _464
REMARK  192  A    between atoms: _468  and  _470
REMARK  193  A    between atoms: _470  and  _471
REMARK  194  A    between atoms: _470  and  _473
REMARK  195  A    between atoms: _474  and  _475
REMARK  196  A    between atoms: _478  and  _480
REMARK  197  A    between atoms: _480  and  _481
REMARK  198  A    between atoms: _480  and  _483
REMARK  199  A    between atoms: _486  and  _488
REMARK  200  A    between atoms: _488  and  _489
REMARK  201  A    between atoms: _488  and  _491
REMARK  202  A    between atoms: _491  and  _492
REMARK  203  A    between atoms: _495  and  _497
REMARK  204  A    between atoms: _497  and  _498
REMARK  205  A    between atoms: _497  and  _500
REMARK  206  A    between atoms: _500  and  _501
REMARK  207  A    between atoms: _503  and  _505
REMARK  208  A    between atoms: _505  and  _506
REMARK  209  A    between atoms: _505  and  _508
REMARK  210  A    between atoms: _511  and  _513
REMARK  211  A    between atoms: _513  and  _514
REMARK  212  A    between atoms: _513  and  _516
REMARK  213  A    between atoms: _516  and  _517
REMARK  214  A    between atoms: _520  and  _522
REMARK  215  A    between atoms: _522  and  _523
REMARK  216  A    between atoms: _522  and  _525
REMARK  217  A    between atoms: _525  and  _526
REMARK                            x       y       z     vdW  Elec       q    Type
REMARK                         _______ _______ _______ _____ _____    ______ ____
ROOT
ATOM      1  O   HOH     1      -6.000  -5.823   7.847  0.00  0.00    +0.000 OA
ENDROOT
TORSDOF 0
REMARK  Name = ../refined-set-2016/2r75/2r75_pocket.pdb
REMARK  217 active torsions:
REMARK  status: ('A' for Active; 'I' for Inactive)
REMARK    1  A    between atoms: _1  and  _3
REMARK    2  A    between atoms: _3  and  _4
REMARK    3  A    between atoms: _3  and  _6
REMARK    4  A    between atoms: _9  and  _11
REMARK    5  A    between atoms: _11  and  _12
REMARK    6  A    between atoms: _14  and  _16
REMARK    7  A    between atoms: _16  and  _17
REMARK    8  A    between atoms: _19  and  _21
REMARK    9  A    between atoms: _21  and  _22
REMARK   10  A    between atoms: _24  and  _26
REMARK   11  A    between atoms: _26  and  _27
REMARK   12  A    between atoms: _29  and  _31
REMARK   13  A    between atoms: _31  and  _32
REMARK   14  A    between atoms: _31  and  _34
REMARK   15  A    between atoms: _34  and  _35
REMARK   16  A    between atoms: _37  and  _39
REMARK   17  A    between atoms: _39  and  _40
REMARK   18  A    between atoms: _39  and  _42
REMARK   19  A    between atoms: _42  and  _43
REMARK   20  A    between atoms: _48  and  _50
REMARK   21  A    between atoms: _50  and  _51
REMARK   22  A    between atoms: _54  and  _56
REMARK   23  A    between atoms: _56  and  _57
REMARK   24  A    between atoms: _56  and  _59
REMARK   25  A    between atoms: _62  and  _64
REMARK   26  A    between atoms: _64  and  _65
REMARK   27  A    between atoms: _64  and  _67
REMARK   28  A    between atoms: _67  and  _68
REMARK   29  A    between atoms: _73  and  _75
REMARK   30  A    between atoms: _75  and  _76
REMARK   31  A    between atoms: _75  and  _78
REMARK   32  A    between atoms: _78  and  _79
REMARK   33  A    between atoms: _79  and  _80
REMARK   34  A    between atoms: _80  and  _81
REMARK   35  A    between atoms: _90  and  _92
REMARK   36  A    between atoms: _92  and  _93
REMARK   37  A    between atoms: _92  and  _95
REMARK   38  A    between atoms: _95  and  _96
REMARK   39  A    between atoms: _99  and  _101
REMARK   40  A    between atoms: _101  and  _102
REMARK   41  A    between atoms: _101  and  _104
REMARK   42  A    between atoms: _104  and  _105
REMARK   43  A    between atoms: _110  and  _112
REMARK   44  A    between atoms: _112  and  _113
REMARK   45  A    between atoms: _112  and  _115
REMARK   46  A    between atoms: _115  and  _116
REMARK   47  A    between atoms: _119  and  _121
REMARK   48  A    between atoms: _121  and  _122
REMARK   49  A    between atoms: _121  and  _124
REMARK   50  A    between atoms: _124  and  _125
REMARK   51  A    between atoms: _128  and  _130
REMARK   52  A    between atoms: _130  and  _131
REMARK   53  A    between atoms: _130  and  _133
REMARK   54  A    between atoms: _133  and  _134
REMARK   55  A    between atoms: _139  and  _141
REMARK   56  A    between atoms: _141  and  _142
REMARK   57  A    between atoms: _141  and  _144
REMARK   58  A    between atoms: _144  and  _145
REMARK   59  A    between atoms: _148  and  _150
REMARK   60  A    between atoms: _150  and  _151
REMARK   61  A    between atoms: _150  and  _153
REMARK   62  A    between atoms: _153  and  _154
REMARK   63  A    between atoms: _157  and  _159
REMARK   64  A    between atoms: _159  and  _160
REMARK   65  A    between atoms: _162  and  _164
REMARK   66  A    between atoms: _164  and  _165
REMARK   67  A    between atoms: _168  and  _170
REMARK   68  A    between atoms: _170  and  _171
REMARK   69  A    between atoms: _173  and  _175
REMARK   70  A    between atoms: _175  and  _176
REMARK   71  A    between atoms: _179  and  _181
REMARK   72  A    between atoms: _181  and  _182
REMARK   73  A    between atoms: _181  and  _184
REMARK   74  A    between atoms: _184  and  _185
REMARK   75  A    between atoms: _185  and  _186
REMARK   76  A    between atoms: _186  and  _187
REMARK   77  A    between atoms: _187  and  _188
REMARK   78  A    between atoms: _193  and  _194
REMARK   79  A    between atoms: _199  and  _201
REMARK   80  A    between atoms: _201  and  _202
REMARK   81  A    between atoms: _201  and  _204
REMARK   82  A    between atoms: _207  and  _209
REMARK   83  A    between atoms: _209  and  _210
REMARK   84  A    between atoms: _212  and  _214
REMARK   85  A    between atoms: _214  and  _215
REMARK   86  A    between atoms: _214  and  _217
REMARK   87  A    between atoms: _217  and  _218
REMARK   88  A    between atoms: _220  and  _222
REMARK   89  A    between atoms: _222  and  _223
REMARK   90  A    between atoms: _226  and  _228
REMARK   91  A    between atoms: _228  and  _229
REMARK   92  A    between atoms: _231  and  _233
REMARK   93  A    between atoms: _233  and  _234
REMARK   94  A    between atoms: _233  and  _236
REMARK   95  A    between atoms: _236  and  _237
REMARK   96  A    between atoms: _240  and  _242
REMARK   97  A    between atoms: _242  and  _243
REMARK   98  A    between atoms: _245  and  _247
REMARK   99  A    between atoms: _247  and  _248
REMARK  100  A    between atoms: _250  and  _252
REMARK  101  A    between atoms: _252  and  _253
REMARK  102  A    between atoms: _255  and  _257
REMARK  103  A    between atoms: _257  and  _258
REMARK  104  A    between atoms: _257  and  _260
REMARK  105  A    between atoms: _260  and  _261
REMARK  106  A    between atoms: _264  and  _266
REMARK  107  A    between atoms: _266  and  _267
REMARK  108  A    between atoms: _269  and  _271
REMARK  109  A    between atoms: _271  and  _272
REMARK  110  A    between atoms: _271  and  _274
REMARK  111  A    between atoms: _274  and  _275
REMARK  112  A    between atoms: _278  and  _280
REMARK  113  A    between atoms: _280  and  _281
REMARK  114  A    between atoms: _283  and  _285
REMARK  115  A    between atoms: _285  and  _286
REMARK  116  A    between atoms: _289  and  _291
REMARK  117  A    between atoms: _291  and  _292
REMARK  118  A    between atoms: _295  and  _297
REMARK  119  A    between atoms: _297  and  _298
REMARK  120  A    between atoms: _297  and  _300
REMARK  121  A    between atoms: _300  and  _301
REMARK  122  A    between atoms: _304  and  _306
REMARK  123  A    between atoms: _306  and  _307
REMARK  124  A    between atoms: _306  and  _309
REMARK  125  A    between atoms: _309  and  _310
REMARK  126  A    between atoms: _314  and  _315
REMARK  127  A    between atoms: _320  and  _322
REMARK  128  A    between atoms: _322  and  _323
REMARK  129  A    between atoms: _322  and  _325
REMARK  130  A    between atoms: _325  and  _326
REMARK  131  A    between atoms: _332  and  _334
REMARK  132  A    between atoms: _334  and  _335
REMARK  133  A    between atoms: _334  and  _337
REMARK  134  A    between atoms: _337  and  _338
REMARK  135  A    between atoms: _344  and  _346
REMARK  136  A    between atoms: _346  and  _347
REMARK  137  A    between atoms: _346  and  _349
REMARK  138  A    between atoms: _349  and  _350
REMARK  139  A    between atoms: _350  and  _351
REMARK  140  A    between atoms: _354  and  _356
REMARK  141  A    between atoms: _356  and  _357
REMARK  142  A    between atoms: _356  and  _359
REMARK  143  A    between atoms: _359  and  _360
REMARK  144  A    between atoms: _360  and  _361
REMARK  145  A    between atoms: _361  and  _362
REMARK  146  A    between atoms: _362  and  _363
REMARK  147  A    between atoms: _367  and  _369
REMARK  148  A    between atoms: _369  and  _370
REMARK  149  A    between atoms: _369  and  _372
REMARK  150  A    between atoms: _372  and  _373
REMARK  151  A    between atoms: _373  and  _374
REMARK  152  A    between atoms: _376  and  _378
REMARK  153  A    between atoms: _378  and  _379
REMARK  154  A    between atoms: _378  and  _381
REMARK  155  A    between atoms: _381  and  _382
REMARK  156  A    between atoms: _382  and  _383
REMARK  157  A    between atoms: _383  and  _384
REMARK  158  A    between atoms: _384  and  _385
REMARK  159  A    between atoms: _389  and  _391
REMARK  160  A    between atoms: _391  and  _392
REMARK  161  A    between atoms: _395  and  _397
REMARK  162  A    between atoms: _397  and  _398
REMARK  163  A    between atoms: _397  and  _400
REMARK  164  A    between atoms: _400  and  _401
REMARK  165  A    between atoms: _406  and  _408
REMARK  166  A    between atoms: _408  and  _409
REMARK  167  A    between atoms: _408  and  _411
REMARK  168  A    between atoms: _411  and  _412
REMARK  169  A    between atoms: _415  and  _417
REMARK  170  A    between atoms: _417  and  _418
REMARK  171  A    between atoms: _417  and  _420
REMARK  172  A    between atoms: _420  and  _421
REMARK  173  A    between atoms: _424  and  _426
REMARK  174  A    between atoms: _426  and  _427
REMARK  175  A    between atoms: _426  and  _429
REMARK  176  A    between atoms: _429  and  _430
REMARK  177  A    between atoms: _430  and  _431
REMARK  178  A    between atoms: _431  and  _432
REMARK  179  A    between atoms: _432  and  _433
REMARK  180  A    between atoms: _437  and  _439
REMARK  181  A    between atoms: _439  and  _440
REMARK  182  A    between atoms: _443  and  _445
REMARK  183  A    between atoms: _445  and  _446
REMARK  184  A    between atoms: _445  and  _448
REMARK  185  A    between atoms: _448  and  _449
REMARK  186  A    between atoms: _455  and  _457
REMARK  187  A    between atoms: _457  and  _458
REMARK  188  A    between atoms: _457  and  _460
REMARK  189  A    between atoms: _461  and  _462
REMARK  190  A    between atoms: _462  and  _463
REMARK  191  A    between atoms: _463  and  _464
REMARK  192  A    between atoms: _468  and  _470
REMARK  193  A    between atoms: _470  and  _471
REMARK  194  A    between atoms: _470  and  _473
REMARK  195  A    between atoms: _474  and  _475
REMARK  196  A    between atoms: _478  and  _480
REMARK  197  A    between atoms: _480  and  _481
REMARK  198  A    between atoms: _480  and  _483
REMARK  199  A    between atoms: _486  and  _488
REMARK  200  A    between atoms: _488  and  _489
REMARK  201  A    between atoms: _488  and  _491
REMARK  202  A    between atoms: _491  and  _492
REMARK  203  A    between atoms: _495  and  _497
REMARK  204  A    between atoms: _497  and  _498
REMARK  205  A    between atoms: _497  and  _500
REMARK  206  A    between atoms: _500  and  _501
REMARK  207  A    between atoms: _503  and  _505
REMARK  208  A    between atoms: _505  and  _506
REMARK  209  A    between atoms: _505  and  _508
REMARK  210  A    between atoms: _511  and  _513
REMARK  211  A    between atoms: _513  and  _514
REMARK  212  A    between atoms: _513  and  _516
REMARK  213  A    between atoms: _516  and  _517
REMARK  214  A    between atoms: _520  and  _522
REMARK  215  A    between atoms: _522  and  _523
REMARK  216  A    between atoms: _522  and  _525
REMARK  217  A    between atoms: _525  and  _526
REMARK                            x       y       z     vdW  Elec       q    Type
REMARK                         _______ _______ _______ _____ _____    ______ ____
ROOT
ATOM      1  O   HOH     1      -3.422  -3.198   9.814  0.00  0.00    +0.000 OA
ENDROOT
TORSDOF 0
REMARK  Name = ../refined-set-2016/2r75/2r75_pocket.pdb
REMARK  217 active torsions:
REMARK  status: ('A' for Active; 'I' for Inactive)
REMARK    1  A    between atoms: _1  and  _3
REMARK    2  A    between atoms: _3  and  _4
REMARK    3  A    between atoms: _3  and  _6
REMARK    4  A    between atoms: _9  and  _11
REMARK    5  A    between atoms: _11  and  _12
REMARK    6  A    between atoms: _14  and  _16
REMARK    7  A    between atoms: _16  and  _17
REMARK    8  A    between atoms: _19  and  _21
REMARK    9  A    between atoms: _21  and  _22
REMARK   10  A    between atoms: _24  and  _26
REMARK   11  A    between atoms: _26  and  _27
REMARK   12  A    between atoms: _29  and  _31
REMARK   13  A    between atoms: _31  and  _32
REMARK   14  A    between atoms: _31  and  _34
REMARK   15  A    between atoms: _34  and  _35
REMARK   16  A    between atoms: _37  and  _39
REMARK   17  A    between atoms: _39  and  _40
REMARK   18  A    between atoms: _39  and  _42
REMARK   19  A    between atoms: _42  and  _43
REMARK   20  A    between atoms: _48  and  _50
REMARK   21  A    between atoms: _50  and  _51
REMARK   22  A    between atoms: _54  and  _56
REMARK   23  A    between atoms: _56  and  _57
REMARK   24  A    between atoms: _56  and  _59
REMARK   25  A    between atoms: _62  and  _64
REMARK   26  A    between atoms: _64  and  _65
REMARK   27  A    between atoms: _64  and  _67
REMARK   28  A    between atoms: _67  and  _68
REMARK   29  A    between atoms: _73  and  _75
REMARK   30  A    between atoms: _75  and  _76
REMARK   31  A    between atoms: _75  and  _78
REMARK   32  A    between atoms: _78  and  _79
REMARK   33  A    between atoms: _79  and  _80
REMARK   34  A    between atoms: _80  and  _81
REMARK   35  A    between atoms: _90  and  _92
REMARK   36  A    between atoms: _92  and  _93
REMARK   37  A    between atoms: _92  and  _95
REMARK   38  A    between atoms: _95  and  _96
REMARK   39  A    between atoms: _99  and  _101
REMARK   40  A    between atoms: _101  and  _102
REMARK   41  A    between atoms: _101  and  _104
REMARK   42  A    between atoms: _104  and  _105
REMARK   43  A    between atoms: _110  and  _112
REMARK   44  A    between atoms: _112  and  _113
REMARK   45  A    between atoms: _112  and  _115
REMARK   46  A    between atoms: _115  and  _116
REMARK   47  A    between atoms: _119  and  _121
REMARK   48  A    between atoms: _121  and  _122
REMARK   49  A    between atoms: _121  and  _124
REMARK   50  A    between atoms: _124  and  _125
REMARK   51  A    between atoms: _128  and  _130
REMARK   52  A    between atoms: _130  and  _131
REMARK   53  A    between atoms: _130  and  _133
REMARK   54  A    between atoms: _133  and  _134
REMARK   55  A    between atoms: _139  and  _141
REMARK   56  A    between atoms: _141  and  _142
REMARK   57  A    between atoms: _141  and  _144
REMARK   58  A    between atoms: _144  and  _145
REMARK   59  A    between atoms: _148  and  _150
REMARK   60  A    between atoms: _150  and  _151
REMARK   61  A    between atoms: _150  and  _153
REMARK   62  A    between atoms: _153  and  _154
REMARK   63  A    between atoms: _157  and  _159
REMARK   64  A    between atoms: _159  and  _160
REMARK   65  A    between atoms: _162  and  _164
REMARK   66  A    between atoms: _164  and  _165
REMARK   67  A    between atoms: _168  and  _170
REMARK   68  A    between atoms: _170  and  _171
REMARK   69  A    between atoms: _173  and  _175
REMARK   70  A    between atoms: _175  and  _176
REMARK   71  A    between atoms: _179  and  _181
REMARK   72  A    between atoms: _181  and  _182
REMARK   73  A    between atoms: _181  and  _184
REMARK   74  A    between atoms: _184  and  _185
REMARK   75  A    between atoms: _185  and  _186
REMARK   76  A    between atoms: _186  and  _187
REMARK   77  A    between atoms: _187  and  _188
REMARK   78  A    between atoms: _193  and  _194
REMARK   79  A    between atoms: _199  and  _201
REMARK   80  A    between atoms: _201  and  _202
REMARK   81  A    between atoms: _201  and  _204
REMARK   82  A    between atoms: _207  and  _209
REMARK   83  A    between atoms: _209  and  _210
REMARK   84  A    between atoms: _212  and  _214
REMARK   85  A    between atoms: _214  and  _215
REMARK   86  A    between atoms: _214  and  _217
REMARK   87  A    between atoms: _217  and  _218
REMARK   88  A    between atoms: _220  and  _222
REMARK   89  A    between atoms: _222  and  _223
REMARK   90  A    between atoms: _226  and  _228
REMARK   91  A    between atoms: _228  and  _229
REMARK   92  A    between atoms: _231  and  _233
REMARK   93  A    between atoms: _233  and  _234
REMARK   94  A    between atoms: _233  and  _236
REMARK   95  A    between atoms: _236  and  _237
REMARK   96  A    between atoms: _240  and  _242
REMARK   97  A    between atoms: _242  and  _243
REMARK   98  A    between atoms: _245  and  _247
REMARK   99  A    between atoms: _247  and  _248
REMARK  100  A    between atoms: _250  and  _252
REMARK  101  A    between atoms: _252  and  _253
REMARK  102  A    between atoms: _255  and  _257
REMARK  103  A    between atoms: _257  and  _258
REMARK  104  A    between atoms: _257  and  _260
REMARK  105  A    between atoms: _260  and  _261
REMARK  106  A    between atoms: _264  and  _266
REMARK  107  A    between atoms: _266  and  _267
REMARK  108  A    between atoms: _269  and  _271
REMARK  109  A    between atoms: _271  and  _272
REMARK  110  A    between atoms: _271  and  _274
REMARK  111  A    between atoms: _274  and  _275
REMARK  112  A    between atoms: _278  and  _280
REMARK  113  A    between atoms: _280  and  _281
REMARK  114  A    between atoms: _283  and  _285
REMARK  115  A    between atoms: _285  and  _286
REMARK  116  A    between atoms: _289  and  _291
REMARK  117  A    between atoms: _291  and  _292
REMARK  118  A    between atoms: _295  and  _297
REMARK  119  A    between atoms: _297  and  _298
REMARK  120  A    between atoms: _297  and  _300
REMARK  121  A    between atoms: _300  and  _301
REMARK  122  A    between atoms: _304  and  _306
REMARK  123  A    between atoms: _306  and  _307
REMARK  124  A    between atoms: _306  and  _309
REMARK  125  A    between atoms: _309  and  _310
REMARK  126  A    between atoms: _314  and  _315
REMARK  127  A    between atoms: _320  and  _322
REMARK  128  A    between atoms: _322  and  _323
REMARK  129  A    between atoms: _322  and  _325
REMARK  130  A    between atoms: _325  and  _326
REMARK  131  A    between atoms: _332  and  _334
REMARK  132  A    between atoms: _334  and  _335
REMARK  133  A    between atoms: _334  and  _337
REMARK  134  A    between atoms: _337  and  _338
REMARK  135  A    between atoms: _344  and  _346
REMARK  136  A    between atoms: _346  and  _347
REMARK  137  A    between atoms: _346  and  _349
REMARK  138  A    between atoms: _349  and  _350
REMARK  139  A    between atoms: _350  and  _351
REMARK  140  A    between atoms: _354  and  _356
REMARK  141  A    between atoms: _356  and  _357
REMARK  142  A    between atoms: _356  and  _359
REMARK  143  A    between atoms: _359  and  _360
REMARK  144  A    between atoms: _360  and  _361
REMARK  145  A    between atoms: _361  and  _362
REMARK  146  A    between atoms: _362  and  _363
REMARK  147  A    between atoms: _367  and  _369
REMARK  148  A    between atoms: _369  and  _370
REMARK  149  A    between atoms: _369  and  _372
REMARK  150  A    between atoms: _372  and  _373
REMARK  151  A    between atoms: _373  and  _374
REMARK  152  A    between atoms: _376  and  _378
REMARK  153  A    between atoms: _378  and  _379
REMARK  154  A    between atoms: _378  and  _381
REMARK  155  A    between atoms: _381  and  _382
REMARK  156  A    between atoms: _382  and  _383
REMARK  157  A    between atoms: _383  and  _384
REMARK  158  A    between atoms: _384  and  _385
REMARK  159  A    between atoms: _389  and  _391
REMARK  160  A    between atoms: _391  and  _392
REMARK  161  A    between atoms: _395  and  _397
REMARK  162  A    between atoms: _397  and  _398
REMARK  163  A    between atoms: _397  and  _400
REMARK  164  A    between atoms: _400  and  _401
REMARK  165  A    between atoms: _406  and  _408
REMARK  166  A    between atoms: _408  and  _409
REMARK  167  A    between atoms: _408  and  _411
REMARK  168  A    between atoms: _411  and  _412
REMARK  169  A    between atoms: _415  and  _417
REMARK  170  A    between atoms: _417  and  _418
REMARK  171  A    between atoms: _417  and  _420
REMARK  172  A    between atoms: _420  and  _421
REMARK  173  A    between atoms: _424  and  _426
REMARK  174  A    between atoms: _426  and  _427
REMARK  175  A    between atoms: _426  and  _429
REMARK  176  A    between atoms: _429  and  _430
REMARK  177  A    between atoms: _430  and  _431
REMARK  178  A    between atoms: _431  and  _432
REMARK  179  A    between atoms: _432  and  _433
REMARK  180  A    between atoms: _437  and  _439
REMARK  181  A    between atoms: _439  and  _440
REMARK  182  A    between atoms: _443  and  _445
REMARK  183  A    between atoms: _445  and  _446
REMARK  184  A    between atoms: _445  and  _448
REMARK  185  A    between atoms: _448  and  _449
REMARK  186  A    between atoms: _455  and  _457
REMARK  187  A    between atoms: _457  and  _458
REMARK  188  A    between atoms: _457  and  _460
REMARK  189  A    between atoms: _461  and  _462
REMARK  190  A    between atoms: _462  and  _463
REMARK  191  A    between atoms: _463  and  _464
REMARK  192  A    between atoms: _468  and  _470
REMARK  193  A    between atoms: _470  and  _471
REMARK  194  A    between atoms: _470  and  _473
REMARK  195  A    between atoms: _474  and  _475
REMARK  196  A    between atoms: _478  and  _480
REMARK  197  A    between atoms: _480  and  _481
REMARK  198  A    between atoms: _480  and  _483
REMARK  199  A    between atoms: _486  and  _488
REMARK  200  A    between atoms: _488  and  _489
REMARK  201  A    between atoms: _488  and  _491
REMARK  202  A    between atoms: _491  and  _492
REMARK  203  A    between atoms: _495  and  _497
REMARK  204  A    between atoms: _497  and  _498
REMARK  205  A    between atoms: _497  and  _500
REMARK  206  A    between atoms: _500  and  _501
REMARK  207  A    between atoms: _503  and  _505
REMARK  208  A    between atoms: _505  and  _506
REMARK  209  A    between atoms: _505  and  _508
REMARK  210  A    between atoms: _511  and  _513
REMARK  211  A    between atoms: _513  and  _514
REMARK  212  A    between atoms: _513  and  _516
REMARK  213  A    between atoms: _516  and  _517
REMARK  214  A    between atoms: _520  and  _522
REMARK  215  A    between atoms: _522  and  _523
REMARK  216  A    between atoms: _522  and  _525
REMARK  217  A    between atoms: _525  and  _526
REMARK                            x       y       z     vdW  Elec       q    Type
REMARK                         _______ _______ _______ _____ _____    ______ ____
ROOT
ATOM      1  O   HOH     1      -8.718   1.200   6.594  0.00  0.00    +0.000 OA
ENDROOT
TORSDOF 0
REMARK  Name = ../refined-set-2016/2r75/2r75_pocket.pdb
REMARK  217 active torsions:
REMARK  status: ('A' for Active; 'I' for Inactive)
REMARK    1  A    between atoms: _1  and  _3
REMARK    2  A    between atoms: _3  and  _4
REMARK    3  A    between atoms: _3  and  _6
REMARK    4  A    between atoms: _9  and  _11
REMARK    5  A    between atoms: _11  and  _12
REMARK    6  A    between atoms: _14  and  _16
REMARK    7  A    between atoms: _16  and  _17
REMARK    8  A    between atoms: _19  and  _21
REMARK    9  A    between atoms: _21  and  _22
REMARK   10  A    between atoms: _24  and  _26
REMARK   11  A    between atoms: _26  and  _27
REMARK   12  A    between atoms: _29  and  _31
REMARK   13  A    between atoms: _31  and  _32
REMARK   14  A    between atoms: _31  and  _34
REMARK   15  A    between atoms: _34  and  _35
REMARK   16  A    between atoms: _37  and  _39
REMARK   17  A    between atoms: _39  and  _40
REMARK   18  A    between atoms: _39  and  _42
REMARK   19  A    between atoms: _42  and  _43
REMARK   20  A    between atoms: _48  and  _50
REMARK   21  A    between atoms: _50  and  _51
REMARK   22  A    between atoms: _54  and  _56
REMARK   23  A    between atoms: _56  and  _57
REMARK   24  A    between atoms: _56  and  _59
REMARK   25  A    between atoms: _62  and  _64
REMARK   26  A    between atoms: _64  and  _65
REMARK   27  A    between atoms: _64  and  _67
REMARK   28  A    between atoms: _67  and  _68
REMARK   29  A    between atoms: _73  and  _75
REMARK   30  A    between atoms: _75  and  _76
REMARK   31  A    between atoms: _75  and  _78
REMARK   32  A    between atoms: _78  and  _79
REMARK   33  A    between atoms: _79  and  _80
REMARK   34  A    between atoms: _80  and  _81
REMARK   35  A    between atoms: _90  and  _92
REMARK   36  A    between atoms: _92  and  _93
REMARK   37  A    between atoms: _92  and  _95
REMARK   38  A    between atoms: _95  and  _96
REMARK   39  A    between atoms: _99  and  _101
REMARK   40  A    between atoms: _101  and  _102
REMARK   41  A    between atoms: _101  and  _104
REMARK   42  A    between atoms: _104  and  _105
REMARK   43  A    between atoms: _110  and  _112
REMARK   44  A    between atoms: _112  and  _113
REMARK   45  A    between atoms: _112  and  _115
REMARK   46  A    between atoms: _115  and  _116
REMARK   47  A    between atoms: _119  and  _121
REMARK   48  A    between atoms: _121  and  _122
REMARK   49  A    between atoms: _121  and  _124
REMARK   50  A    between atoms: _124  and  _125
REMARK   51  A    between atoms: _128  and  _130
REMARK   52  A    between atoms: _130  and  _131
REMARK   53  A    between atoms: _130  and  _133
REMARK   54  A    between atoms: _133  and  _134
REMARK   55  A    between atoms: _139  and  _141
REMARK   56  A    between atoms: _141  and  _142
REMARK   57  A    between atoms: _141  and  _144
REMARK   58  A    between atoms: _144  and  _145
REMARK   59  A    between atoms: _148  and  _150
REMARK   60  A    between atoms: _150  and  _151
REMARK   61  A    between atoms: _150  and  _153
REMARK   62  A    between atoms: _153  and  _154
REMARK   63  A    between atoms: _157  and  _159
REMARK   64  A    between atoms: _159  and  _160
REMARK   65  A    between atoms: _162  and  _164
REMARK   66  A    between atoms: _164  and  _165
REMARK   67  A    between atoms: _168  and  _170
REMARK   68  A    between atoms: _170  and  _171
REMARK   69  A    between atoms: _173  and  _175
REMARK   70  A    between atoms: _175  and  _176
REMARK   71  A    between atoms: _179  and  _181
REMARK   72  A    between atoms: _181  and  _182
REMARK   73  A    between atoms: _181  and  _184
REMARK   74  A    between atoms: _184  and  _185
REMARK   75  A    between atoms: _185  and  _186
REMARK   76  A    between atoms: _186  and  _187
REMARK   77  A    between atoms: _187  and  _188
REMARK   78  A    between atoms: _193  and  _194
REMARK   79  A    between atoms: _199  and  _201
REMARK   80  A    between atoms: _201  and  _202
REMARK   81  A    between atoms: _201  and  _204
REMARK   82  A    between atoms: _207  and  _209
REMARK   83  A    between atoms: _209  and  _210
REMARK   84  A    between atoms: _212  and  _214
REMARK   85  A    between atoms: _214  and  _215
REMARK   86  A    between atoms: _214  and  _217
REMARK   87  A    between atoms: _217  and  _218
REMARK   88  A    between atoms: _220  and  _222
REMARK   89  A    between atoms: _222  and  _223
REMARK   90  A    between atoms: _226  and  _228
REMARK   91  A    between atoms: _228  and  _229
REMARK   92  A    between atoms: _231  and  _233
REMARK   93  A    between atoms: _233  and  _234
REMARK   94  A    between atoms: _233  and  _236
REMARK   95  A    between atoms: _236  and  _237
REMARK   96  A    between atoms: _240  and  _242
REMARK   97  A    between atoms: _242  and  _243
REMARK   98  A    between atoms: _245  and  _247
REMARK   99  A    between atoms: _247  and  _248
REMARK  100  A    between atoms: _250  and  _252
REMARK  101  A    between atoms: _252  and  _253
REMARK  102  A    between atoms: _255  and  _257
REMARK  103  A    between atoms: _257  and  _258
REMARK  104  A    between atoms: _257  and  _260
REMARK  105  A    between atoms: _260  and  _261
REMARK  106  A    between atoms: _264  and  _266
REMARK  107  A    between atoms: _266  and  _267
REMARK  108  A    between atoms: _269  and  _271
REMARK  109  A    between atoms: _271  and  _272
REMARK  110  A    between atoms: _271  and  _274
REMARK  111  A    between atoms: _274  and  _275
REMARK  112  A    between atoms: _278  and  _280
REMARK  113  A    between atoms: _280  and  _281
REMARK  114  A    between atoms: _283  and  _285
REMARK  115  A    between atoms: _285  and  _286
REMARK  116  A    between atoms: _289  and  _291
REMARK  117  A    between atoms: _291  and  _292
REMARK  118  A    between atoms: _295  and  _297
REMARK  119  A    between atoms: _297  and  _298
REMARK  120  A    between atoms: _297  and  _300
REMARK  121  A    between atoms: _300  and  _301
REMARK  122  A    between atoms: _304  and  _306
REMARK  123  A    between atoms: _306  and  _307
REMARK  124  A    between atoms: _306  and  _309
REMARK  125  A    between atoms: _309  and  _310
REMARK  126  A    between atoms: _314  and  _315
REMARK  127  A    between atoms: _320  and  _322
REMARK  128  A    between atoms: _322  and  _323
REMARK  129  A    between atoms: _322  and  _325
REMARK  130  A    between atoms: _325  and  _326
REMARK  131  A    between atoms: _332  and  _334
REMARK  132  A    between atoms: _334  and  _335
REMARK  133  A    between atoms: _334  and  _337
REMARK  134  A    between atoms: _337  and  _338
REMARK  135  A    between atoms: _344  and  _346
REMARK  136  A    between atoms: _346  and  _347
REMARK  137  A    between atoms: _346  and  _349
REMARK  138  A    between atoms: _349  and  _350
REMARK  139  A    between atoms: _350  and  _351
REMARK  140  A    between atoms: _354  and  _356
REMARK  141  A    between atoms: _356  and  _357
REMARK  142  A    between atoms: _356  and  _359
REMARK  143  A    between atoms: _359  and  _360
REMARK  144  A    between atoms: _360  and  _361
REMARK  145  A    between atoms: _361  and  _362
REMARK  146  A    between atoms: _362  and  _363
REMARK  147  A    between atoms: _367  and  _369
REMARK  148  A    between atoms: _369  and  _370
REMARK  149  A    between atoms: _369  and  _372
REMARK  150  A    between atoms: _372  and  _373
REMARK  151  A    between atoms: _373  and  _374
REMARK  152  A    between atoms: _376  and  _378
REMARK  153  A    between atoms: _378  and  _379
REMARK  154  A    between atoms: _378  and  _381
REMARK  155  A    between atoms: _381  and  _382
REMARK  156  A    between atoms: _382  and  _383
REMARK  157  A    between atoms: _383  and  _384
REMARK  158  A    between atoms: _384  and  _385
REMARK  159  A    between atoms: _389  and  _391
REMARK  160  A    between atoms: _391  and  _392
REMARK  161  A    between atoms: _395  and  _397
REMARK  162  A    between atoms: _397  and  _398
REMARK  163  A    between atoms: _397  and  _400
REMARK  164  A    between atoms: _400  and  _401
REMARK  165  A    between atoms: _406  and  _408
REMARK  166  A    between atoms: _408  and  _409
REMARK  167  A    between atoms: _408  and  _411
REMARK  168  A    between atoms: _411  and  _412
REMARK  169  A    between atoms: _415  and  _417
REMARK  170  A    between atoms: _417  and  _418
REMARK  171  A    between atoms: _417  and  _420
REMARK  172  A    between atoms: _420  and  _421
REMARK  173  A    between atoms: _424  and  _426
REMARK  174  A    between atoms: _426  and  _427
REMARK  175  A    between atoms: _426  and  _429
REMARK  176  A    between atoms: _429  and  _430
REMARK  177  A    between atoms: _430  and  _431
REMARK  178  A    between atoms: _431  and  _432
REMARK  179  A    between atoms: _432  and  _433
REMARK  180  A    between atoms: _437  and  _439
REMARK  181  A    between atoms: _439  and  _440
REMARK  182  A    between atoms: _443  and  _445
REMARK  183  A    between atoms: _445  and  _446
REMARK  184  A    between atoms: _445  and  _448
REMARK  185  A    between atoms: _448  and  _449
REMARK  186  A    between atoms: _455  and  _457
REMARK  187  A    between atoms: _457  and  _458
REMARK  188  A    between atoms: _457  and  _460
REMARK  189  A    between atoms: _461  and  _462
REMARK  190  A    between atoms: _462  and  _463
REMARK  191  A    between atoms: _463  and  _464
REMARK  192  A    between atoms: _468  and  _470
REMARK  193  A    between atoms: _470  and  _471
REMARK  194  A    between atoms: _470  and  _473
REMARK  195  A    between atoms: _474  and  _475
REMARK  196  A    between atoms: _478  and  _480
REMARK  197  A    between atoms: _480  and  _481
REMARK  198  A    between atoms: _480  and  _483
REMARK  199  A    between atoms: _486  and  _488
REMARK  200  A    between atoms: _488  and  _489
REMARK  201  A    between atoms: _488  and  _491
REMARK  202  A    between atoms: _491  and  _492
REMARK  203  A    between atoms: _495  and  _497
REMARK  204  A    between atoms: _497  and  _498
REMARK  205  A    between atoms: _497  and  _500
REMARK  206  A    between atoms: _500  and  _501
REMARK  207  A    between atoms: _503  and  _505
REMARK  208  A    between atoms: _505  and  _506
REMARK  209  A    between atoms: _505  and  _508
REMARK  210  A    between atoms: _511  and  _513
REMARK  211  A    between atoms: _513  and  _514
REMARK  212  A    between atoms: _513  and  _516
REMARK  213  A    between atoms: _516  and  _517
REMARK  214  A    between atoms: _520  and  _522
REMARK  215  A    between atoms: _522  and  _523
REMARK  216  A    between atoms: _522  and  _525
REMARK  217  A    between atoms: _525  and  _526
REMARK                            x       y       z     vdW  Elec       q    Type
REMARK                         _______ _______ _______ _____ _____    ______ ____
ROOT
ATOM      1  O   HOH     1     -10.250 -14.009  15.939  0.00  0.00    +0.000 OA
ENDROOT
TORSDOF 0
REMARK  Name = ../refined-set-2016/2r75/2r75_pocket.pdb
REMARK  217 active torsions:
REMARK  status: ('A' for Active; 'I' for Inactive)
REMARK    1  A    between atoms: _1  and  _3
REMARK    2  A    between atoms: _3  and  _4
REMARK    3  A    between atoms: _3  and  _6
REMARK    4  A    between atoms: _9  and  _11
REMARK    5  A    between atoms: _11  and  _12
REMARK    6  A    between atoms: _14  and  _16
REMARK    7  A    between atoms: _16  and  _17
REMARK    8  A    between atoms: _19  and  _21
REMARK    9  A    between atoms: _21  and  _22
REMARK   10  A    between atoms: _24  and  _26
REMARK   11  A    between atoms: _26  and  _27
REMARK   12  A    between atoms: _29  and  _31
REMARK   13  A    between atoms: _31  and  _32
REMARK   14  A    between atoms: _31  and  _34
REMARK   15  A    between atoms: _34  and  _35
REMARK   16  A    between atoms: _37  and  _39
REMARK   17  A    between atoms: _39  and  _40
REMARK   18  A    between atoms: _39  and  _42
REMARK   19  A    between atoms: _42  and  _43
REMARK   20  A    between atoms: _48  and  _50
REMARK   21  A    between atoms: _50  and  _51
REMARK   22  A    between atoms: _54  and  _56
REMARK   23  A    between atoms: _56  and  _57
REMARK   24  A    between atoms: _56  and  _59
REMARK   25  A    between atoms: _62  and  _64
REMARK   26  A    between atoms: _64  and  _65
REMARK   27  A    between atoms: _64  and  _67
REMARK   28  A    between atoms: _67  and  _68
REMARK   29  A    between atoms: _73  and  _75
REMARK   30  A    between atoms: _75  and  _76
REMARK   31  A    between atoms: _75  and  _78
REMARK   32  A    between atoms: _78  and  _79
REMARK   33  A    between atoms: _79  and  _80
REMARK   34  A    between atoms: _80  and  _81
REMARK   35  A    between atoms: _90  and  _92
REMARK   36  A    between atoms: _92  and  _93
REMARK   37  A    between atoms: _92  and  _95
REMARK   38  A    between atoms: _95  and  _96
REMARK   39  A    between atoms: _99  and  _101
REMARK   40  A    between atoms: _101  and  _102
REMARK   41  A    between atoms: _101  and  _104
REMARK   42  A    between atoms: _104  and  _105
REMARK   43  A    between atoms: _110  and  _112
REMARK   44  A    between atoms: _112  and  _113
REMARK   45  A    between atoms: _112  and  _115
REMARK   46  A    between atoms: _115  and  _116
REMARK   47  A    between atoms: _119  and  _121
REMARK   48  A    between atoms: _121  and  _122
REMARK   49  A    between atoms: _121  and  _124
REMARK   50  A    between atoms: _124  and  _125
REMARK   51  A    between atoms: _128  and  _130
REMARK   52  A    between atoms: _130  and  _131
REMARK   53  A    between atoms: _130  and  _133
REMARK   54  A    between atoms: _133  and  _134
REMARK   55  A    between atoms: _139  and  _141
REMARK   56  A    between atoms: _141  and  _142
REMARK   57  A    between atoms: _141  and  _144
REMARK   58  A    between atoms: _144  and  _145
REMARK   59  A    between atoms: _148  and  _150
REMARK   60  A    between atoms: _150  and  _151
REMARK   61  A    between atoms: _150  and  _153
REMARK   62  A    between atoms: _153  and  _154
REMARK   63  A    between atoms: _157  and  _159
REMARK   64  A    between atoms: _159  and  _160
REMARK   65  A    between atoms: _162  and  _164
REMARK   66  A    between atoms: _164  and  _165
REMARK   67  A    between atoms: _168  and  _170
REMARK   68  A    between atoms: _170  and  _171
REMARK   69  A    between atoms: _173  and  _175
REMARK   70  A    between atoms: _175  and  _176
REMARK   71  A    between atoms: _179  and  _181
REMARK   72  A    between atoms: _181  and  _182
REMARK   73  A    between atoms: _181  and  _184
REMARK   74  A    between atoms: _184  and  _185
REMARK   75  A    between atoms: _185  and  _186
REMARK   76  A    between atoms: _186  and  _187
REMARK   77  A    between atoms: _187  and  _188
REMARK   78  A    between atoms: _193  and  _194
REMARK   79  A    between atoms: _199  and  _201
REMARK   80  A    between atoms: _201  and  _202
REMARK   81  A    between atoms: _201  and  _204
REMARK   82  A    between atoms: _207  and  _209
REMARK   83  A    between atoms: _209  and  _210
REMARK   84  A    between atoms: _212  and  _214
REMARK   85  A    between atoms: _214  and  _215
REMARK   86  A    between atoms: _214  and  _217
REMARK   87  A    between atoms: _217  and  _218
REMARK   88  A    between atoms: _220  and  _222
REMARK   89  A    between atoms: _222  and  _223
REMARK   90  A    between atoms: _226  and  _228
REMARK   91  A    between atoms: _228  and  _229
REMARK   92  A    between atoms: _231  and  _233
REMARK   93  A    between atoms: _233  and  _234
REMARK   94  A    between atoms: _233  and  _236
REMARK   95  A    between atoms: _236  and  _237
REMARK   96  A    between atoms: _240  and  _242
REMARK   97  A    between atoms: _242  and  _243
REMARK   98  A    between atoms: _245  and  _247
REMARK   99  A    between atoms: _247  and  _248
REMARK  100  A    between atoms: _250  and  _252
REMARK  101  A    between atoms: _252  and  _253
REMARK  102  A    between atoms: _255  and  _257
REMARK  103  A    between atoms: _257  and  _258
REMARK  104  A    between atoms: _257  and  _260
REMARK  105  A    between atoms: _260  and  _261
REMARK  106  A    between atoms: _264  and  _266
REMARK  107  A    between atoms: _266  and  _267
REMARK  108  A    between atoms: _269  and  _271
REMARK  109  A    between atoms: _271  and  _272
REMARK  110  A    between atoms: _271  and  _274
REMARK  111  A    between atoms: _274  and  _275
REMARK  112  A    between atoms: _278  and  _280
REMARK  113  A    between atoms: _280  and  _281
REMARK  114  A    between atoms: _283  and  _285
REMARK  115  A    between atoms: _285  and  _286
REMARK  116  A    between atoms: _289  and  _291
REMARK  117  A    between atoms: _291  and  _292
REMARK  118  A    between atoms: _295  and  _297
REMARK  119  A    between atoms: _297  and  _298
REMARK  120  A    between atoms: _297  and  _300
REMARK  121  A    between atoms: _300  and  _301
REMARK  122  A    between atoms: _304  and  _306
REMARK  123  A    between atoms: _306  and  _307
REMARK  124  A    between atoms: _306  and  _309
REMARK  125  A    between atoms: _309  and  _310
REMARK  126  A    between atoms: _314  and  _315
REMARK  127  A    between atoms: _320  and  _322
REMARK  128  A    between atoms: _322  and  _323
REMARK  129  A    between atoms: _322  and  _325
REMARK  130  A    between atoms: _325  and  _326
REMARK  131  A    between atoms: _332  and  _334
REMARK  132  A    between atoms: _334  and  _335
REMARK  133  A    between atoms: _334  and  _337
REMARK  134  A    between atoms: _337  and  _338
REMARK  135  A    between atoms: _344  and  _346
REMARK  136  A    between atoms: _346  and  _347
REMARK  137  A    between atoms: _346  and  _349
REMARK  138  A    between atoms: _349  and  _350
REMARK  139  A    between atoms: _350  and  _351
REMARK  140  A    between atoms: _354  and  _356
REMARK  141  A    between atoms: _356  and  _357
REMARK  142  A    between atoms: _356  and  _359
REMARK  143  A    between atoms: _359  and  _360
REMARK  144  A    between atoms: _360  and  _361
REMARK  145  A    between atoms: _361  and  _362
REMARK  146  A    between atoms: _362  and  _363
REMARK  147  A    between atoms: _367  and  _369
REMARK  148  A    between atoms: _369  and  _370
REMARK  149  A    between atoms: _369  and  _372
REMARK  150  A    between atoms: _372  and  _373
REMARK  151  A    between atoms: _373  and  _374
REMARK  152  A    between atoms: _376  and  _378
REMARK  153  A    between atoms: _378  and  _379
REMARK  154  A    between atoms: _378  and  _381
REMARK  155  A    between atoms: _381  and  _382
REMARK  156  A    between atoms: _382  and  _383
REMARK  157  A    between atoms: _383  and  _384
REMARK  158  A    between atoms: _384  and  _385
REMARK  159  A    between atoms: _389  and  _391
REMARK  160  A    between atoms: _391  and  _392
REMARK  161  A    between atoms: _395  and  _397
REMARK  162  A    between atoms: _397  and  _398
REMARK  163  A    between atoms: _397  and  _400
REMARK  164  A    between atoms: _400  and  _401
REMARK  165  A    between atoms: _406  and  _408
REMARK  166  A    between atoms: _408  and  _409
REMARK  167  A    between atoms: _408  and  _411
REMARK  168  A    between atoms: _411  and  _412
REMARK  169  A    between atoms: _415  and  _417
REMARK  170  A    between atoms: _417  and  _418
REMARK  171  A    between atoms: _417  and  _420
REMARK  172  A    between atoms: _420  and  _421
REMARK  173  A    between atoms: _424  and  _426
REMARK  174  A    between atoms: _426  and  _427
REMARK  175  A    between atoms: _426  and  _429
REMARK  176  A    between atoms: _429  and  _430
REMARK  177  A    between atoms: _430  and  _431
REMARK  178  A    between atoms: _431  and  _432
REMARK  179  A    between atoms: _432  and  _433
REMARK  180  A    between atoms: _437  and  _439
REMARK  181  A    between atoms: _439  and  _440
REMARK  182  A    between atoms: _443  and  _445
REMARK  183  A    between atoms: _445  and  _446
REMARK  184  A    between atoms: _445  and  _448
REMARK  185  A    between atoms: _448  and  _449
REMARK  186  A    between atoms: _455  and  _457
REMARK  187  A    between atoms: _457  and  _458
REMARK  188  A    between atoms: _457  and  _460
REMARK  189  A    between atoms: _461  and  _462
REMARK  190  A    between atoms: _462  and  _463
REMARK  191  A    between atoms: _463  and  _464
REMARK  192  A    between atoms: _468  and  _470
REMARK  193  A    between atoms: _470  and  _471
REMARK  194  A    between atoms: _470  and  _473
REMARK  195  A    between atoms: _474  and  _475
REMARK  196  A    between atoms: _478  and  _480
REMARK  197  A    between atoms: _480  and  _481
REMARK  198  A    between atoms: _480  and  _483
REMARK  199  A    between atoms: _486  and  _488
REMARK  200  A    between atoms: _488  and  _489
REMARK  201  A    between atoms: _488  and  _491
REMARK  202  A    between atoms: _491  and  _492
REMARK  203  A    between atoms: _495  and  _497
REMARK  204  A    between atoms: _497  and  _498
REMARK  205  A    between atoms: _497  and  _500
REMARK  206  A    between atoms: _500  and  _501
REMARK  207  A    between atoms: _503  and  _505
REMARK  208  A    between atoms: _505  and  _506
REMARK  209  A    between atoms: _505  and  _508
REMARK  210  A    between atoms: _511  and  _513
REMARK  211  A    between atoms: _513  and  _514
REMARK  212  A    between atoms: _513  and  _516
REMARK  213  A    between atoms: _516  and  _517
REMARK  214  A    between atoms: _520  and  _522
REMARK  215  A    between atoms: _522  and  _523
REMARK  216  A    between atoms: _522  and  _525
REMARK  217  A    between atoms: _525  and  _526
REMARK                            x       y       z     vdW  Elec       q    Type
REMARK                         _______ _______ _______ _____ _____    ______ ____
ROOT
ATOM      1  O   HOH     1      -3.487   1.195  19.733  0.00  0.00    +0.000 OA
ENDROOT
TORSDOF 0
REMARK  Name = ../refined-set-2016/2r75/2r75_pocket.pdb
REMARK  217 active torsions:
REMARK  status: ('A' for Active; 'I' for Inactive)
REMARK    1  A    between atoms: _1  and  _3
REMARK    2  A    between atoms: _3  and  _4
REMARK    3  A    between atoms: _3  and  _6
REMARK    4  A    between atoms: _9  and  _11
REMARK    5  A    between atoms: _11  and  _12
REMARK    6  A    between atoms: _14  and  _16
REMARK    7  A    between atoms: _16  and  _17
REMARK    8  A    between atoms: _19  and  _21
REMARK    9  A    between atoms: _21  and  _22
REMARK   10  A    between atoms: _24  and  _26
REMARK   11  A    between atoms: _26  and  _27
REMARK   12  A    between atoms: _29  and  _31
REMARK   13  A    between atoms: _31  and  _32
REMARK   14  A    between atoms: _31  and  _34
REMARK   15  A    between atoms: _34  and  _35
REMARK   16  A    between atoms: _37  and  _39
REMARK   17  A    between atoms: _39  and  _40
REMARK   18  A    between atoms: _39  and  _42
REMARK   19  A    between atoms: _42  and  _43
REMARK   20  A    between atoms: _48  and  _50
REMARK   21  A    between atoms: _50  and  _51
REMARK   22  A    between atoms: _54  and  _56
REMARK   23  A    between atoms: _56  and  _57
REMARK   24  A    between atoms: _56  and  _59
REMARK   25  A    between atoms: _62  and  _64
REMARK   26  A    between atoms: _64  and  _65
REMARK   27  A    between atoms: _64  and  _67
REMARK   28  A    between atoms: _67  and  _68
REMARK   29  A    between atoms: _73  and  _75
REMARK   30  A    between atoms: _75  and  _76
REMARK   31  A    between atoms: _75  and  _78
REMARK   32  A    between atoms: _78  and  _79
REMARK   33  A    between atoms: _79  and  _80
REMARK   34  A    between atoms: _80  and  _81
REMARK   35  A    between atoms: _90  and  _92
REMARK   36  A    between atoms: _92  and  _93
REMARK   37  A    between atoms: _92  and  _95
REMARK   38  A    between atoms: _95  and  _96
REMARK   39  A    between atoms: _99  and  _101
REMARK   40  A    between atoms: _101  and  _102
REMARK   41  A    between atoms: _101  and  _104
REMARK   42  A    between atoms: _104  and  _105
REMARK   43  A    between atoms: _110  and  _112
REMARK   44  A    between atoms: _112  and  _113
REMARK   45  A    between atoms: _112  and  _115
REMARK   46  A    between atoms: _115  and  _116
REMARK   47  A    between atoms: _119  and  _121
REMARK   48  A    between atoms: _121  and  _122
REMARK   49  A    between atoms: _121  and  _124
REMARK   50  A    between atoms: _124  and  _125
REMARK   51  A    between atoms: _128  and  _130
REMARK   52  A    between atoms: _130  and  _131
REMARK   53  A    between atoms: _130  and  _133
REMARK   54  A    between atoms: _133  and  _134
REMARK   55  A    between atoms: _139  and  _141
REMARK   56  A    between atoms: _141  and  _142
REMARK   57  A    between atoms: _141  and  _144
REMARK   58  A    between atoms: _144  and  _145
REMARK   59  A    between atoms: _148  and  _150
REMARK   60  A    between atoms: _150  and  _151
REMARK   61  A    between atoms: _150  and  _153
REMARK   62  A    between atoms: _153  and  _154
REMARK   63  A    between atoms: _157  and  _159
REMARK   64  A    between atoms: _159  and  _160
REMARK   65  A    between atoms: _162  and  _164
REMARK   66  A    between atoms: _164  and  _165
REMARK   67  A    between atoms: _168  and  _170
REMARK   68  A    between atoms: _170  and  _171
REMARK   69  A    between atoms: _173  and  _175
REMARK   70  A    between atoms: _175  and  _176
REMARK   71  A    between atoms: _179  and  _181
REMARK   72  A    between atoms: _181  and  _182
REMARK   73  A    between atoms: _181  and  _184
REMARK   74  A    between atoms: _184  and  _185
REMARK   75  A    between atoms: _185  and  _186
REMARK   76  A    between atoms: _186  and  _187
REMARK   77  A    between atoms: _187  and  _188
REMARK   78  A    between atoms: _193  and  _194
REMARK   79  A    between atoms: _199  and  _201
REMARK   80  A    between atoms: _201  and  _202
REMARK   81  A    between atoms: _201  and  _204
REMARK   82  A    between atoms: _207  and  _209
REMARK   83  A    between atoms: _209  and  _210
REMARK   84  A    between atoms: _212  and  _214
REMARK   85  A    between atoms: _214  and  _215
REMARK   86  A    between atoms: _214  and  _217
REMARK   87  A    between atoms: _217  and  _218
REMARK   88  A    between atoms: _220  and  _222
REMARK   89  A    between atoms: _222  and  _223
REMARK   90  A    between atoms: _226  and  _228
REMARK   91  A    between atoms: _228  and  _229
REMARK   92  A    between atoms: _231  and  _233
REMARK   93  A    between atoms: _233  and  _234
REMARK   94  A    between atoms: _233  and  _236
REMARK   95  A    between atoms: _236  and  _237
REMARK   96  A    between atoms: _240  and  _242
REMARK   97  A    between atoms: _242  and  _243
REMARK   98  A    between atoms: _245  and  _247
REMARK   99  A    between atoms: _247  and  _248
REMARK  100  A    between atoms: _250  and  _252
REMARK  101  A    between atoms: _252  and  _253
REMARK  102  A    between atoms: _255  and  _257
REMARK  103  A    between atoms: _257  and  _258
REMARK  104  A    between atoms: _257  and  _260
REMARK  105  A    between atoms: _260  and  _261
REMARK  106  A    between atoms: _264  and  _266
REMARK  107  A    between atoms: _266  and  _267
REMARK  108  A    between atoms: _269  and  _271
REMARK  109  A    between atoms: _271  and  _272
REMARK  110  A    between atoms: _271  and  _274
REMARK  111  A    between atoms: _274  and  _275
REMARK  112  A    between atoms: _278  and  _280
REMARK  113  A    between atoms: _280  and  _281
REMARK  114  A    between atoms: _283  and  _285
REMARK  115  A    between atoms: _285  and  _286
REMARK  116  A    between atoms: _289  and  _291
REMARK  117  A    between atoms: _291  and  _292
REMARK  118  A    between atoms: _295  and  _297
REMARK  119  A    between atoms: _297  and  _298
REMARK  120  A    between atoms: _297  and  _300
REMARK  121  A    between atoms: _300  and  _301
REMARK  122  A    between atoms: _304  and  _306
REMARK  123  A    between atoms: _306  and  _307
REMARK  124  A    between atoms: _306  and  _309
REMARK  125  A    between atoms: _309  and  _310
REMARK  126  A    between atoms: _314  and  _315
REMARK  127  A    between atoms: _320  and  _322
REMARK  128  A    between atoms: _322  and  _323
REMARK  129  A    between atoms: _322  and  _325
REMARK  130  A    between atoms: _325  and  _326
REMARK  131  A    between atoms: _332  and  _334
REMARK  132  A    between atoms: _334  and  _335
REMARK  133  A    between atoms: _334  and  _337
REMARK  134  A    between atoms: _337  and  _338
REMARK  135  A    between atoms: _344  and  _346
REMARK  136  A    between atoms: _346  and  _347
REMARK  137  A    between atoms: _346  and  _349
REMARK  138  A    between atoms: _349  and  _350
REMARK  139  A    between atoms: _350  and  _351
REMARK  140  A    between atoms: _354  and  _356
REMARK  141  A    between atoms: _356  and  _357
REMARK  142  A    between atoms: _356  and  _359
REMARK  143  A    between atoms: _359  and  _360
REMARK  144  A    between atoms: _360  and  _361
REMARK  145  A    between atoms: _361  and  _362
REMARK  146  A    between atoms: _362  and  _363
REMARK  147  A    between atoms: _367  and  _369
REMARK  148  A    between atoms: _369  and  _370
REMARK  149  A    between atoms: _369  and  _372
REMARK  150  A    between atoms: _372  and  _373
REMARK  151  A    between atoms: _373  and  _374
REMARK  152  A    between atoms: _376  and  _378
REMARK  153  A    between atoms: _378  and  _379
REMARK  154  A    between atoms: _378  and  _381
REMARK  155  A    between atoms: _381  and  _382
REMARK  156  A    between atoms: _382  and  _383
REMARK  157  A    between atoms: _383  and  _384
REMARK  158  A    between atoms: _384  and  _385
REMARK  159  A    between atoms: _389  and  _391
REMARK  160  A    between atoms: _391  and  _392
REMARK  161  A    between atoms: _395  and  _397
REMARK  162  A    between atoms: _397  and  _398
REMARK  163  A    between atoms: _397  and  _400
REMARK  164  A    between atoms: _400  and  _401
REMARK  165  A    between atoms: _406  and  _408
REMARK  166  A    between atoms: _408  and  _409
REMARK  167  A    between atoms: _408  and  _411
REMARK  168  A    between atoms: _411  and  _412
REMARK  169  A    between atoms: _415  and  _417
REMARK  170  A    between atoms: _417  and  _418
REMARK  171  A    between atoms: _417  and  _420
REMARK  172  A    between atoms: _420  and  _421
REMARK  173  A    between atoms: _424  and  _426
REMARK  174  A    between atoms: _426  and  _427
REMARK  175  A    between atoms: _426  and  _429
REMARK  176  A    between atoms: _429  and  _430
REMARK  177  A    between atoms: _430  and  _431
REMARK  178  A    between atoms: _431  and  _432
REMARK  179  A    between atoms: _432  and  _433
REMARK  180  A    between atoms: _437  and  _439
REMARK  181  A    between atoms: _439  and  _440
REMARK  182  A    between atoms: _443  and  _445
REMARK  183  A    between atoms: _445  and  _446
REMARK  184  A    between atoms: _445  and  _448
REMARK  185  A    between atoms: _448  and  _449
REMARK  186  A    between atoms: _455  and  _457
REMARK  187  A    between atoms: _457  and  _458
REMARK  188  A    between atoms: _457  and  _460
REMARK  189  A    between atoms: _461  and  _462
REMARK  190  A    between atoms: _462  and  _463
REMARK  191  A    between atoms: _463  and  _464
REMARK  192  A    between atoms: _468  and  _470
REMARK  193  A    between atoms: _470  and  _471
REMARK  194  A    between atoms: _470  and  _473
REMARK  195  A    between atoms: _474  and  _475
REMARK  196  A    between atoms: _478  and  _480
REMARK  197  A    between atoms: _480  and  _481
REMARK  198  A    between atoms: _480  and  _483
REMARK  199  A    between atoms: _486  and  _488
REMARK  200  A    between atoms: _488  and  _489
REMARK  201  A    between atoms: _488  and  _491
REMARK  202  A    between atoms: _491  and  _492
REMARK  203  A    between atoms: _495  and  _497
REMARK  204  A    between atoms: _497  and  _498
REMARK  205  A    between atoms: _497  and  _500
REMARK  206  A    between atoms: _500  and  _501
REMARK  207  A    between atoms: _503  and  _505
REMARK  208  A    between atoms: _505  and  _506
REMARK  209  A    between atoms: _505  and  _508
REMARK  210  A    between atoms: _511  and  _513
REMARK  211  A    between atoms: _513  and  _514
REMARK  212  A    between atoms: _513  and  _516
REMARK  213  A    between atoms: _516  and  _517
REMARK  214  A    between atoms: _520  and  _522
REMARK  215  A    between atoms: _522  and  _523
REMARK  216  A    between atoms: _522  and  _525
REMARK  217  A    between atoms: _525  and  _526
REMARK                            x       y       z     vdW  Elec       q    Type
REMARK                         _______ _______ _______ _____ _____    ______ ____
ROOT
ATOM      1  O   HOH     1       0.180   2.263  21.748  0.00  0.00    +0.000 OA
ENDROOT
TORSDOF 0
REMARK  Name = ../refined-set-2016/2r75/2r75_pocket.pdb
REMARK  217 active torsions:
REMARK  status: ('A' for Active; 'I' for Inactive)
REMARK    1  A    between atoms: _1  and  _3
REMARK    2  A    between atoms: _3  and  _4
REMARK    3  A    between atoms: _3  and  _6
REMARK    4  A    between atoms: _9  and  _11
REMARK    5  A    between atoms: _11  and  _12
REMARK    6  A    between atoms: _14  and  _16
REMARK    7  A    between atoms: _16  and  _17
REMARK    8  A    between atoms: _19  and  _21
REMARK    9  A    between atoms: _21  and  _22
REMARK   10  A    between atoms: _24  and  _26
REMARK   11  A    between atoms: _26  and  _27
REMARK   12  A    between atoms: _29  and  _31
REMARK   13  A    between atoms: _31  and  _32
REMARK   14  A    between atoms: _31  and  _34
REMARK   15  A    between atoms: _34  and  _35
REMARK   16  A    between atoms: _37  and  _39
REMARK   17  A    between atoms: _39  and  _40
REMARK   18  A    between atoms: _39  and  _42
REMARK   19  A    between atoms: _42  and  _43
REMARK   20  A    between atoms: _48  and  _50
REMARK   21  A    between atoms: _50  and  _51
REMARK   22  A    between atoms: _54  and  _56
REMARK   23  A    between atoms: _56  and  _57
REMARK   24  A    between atoms: _56  and  _59
REMARK   25  A    between atoms: _62  and  _64
REMARK   26  A    between atoms: _64  and  _65
REMARK   27  A    between atoms: _64  and  _67
REMARK   28  A    between atoms: _67  and  _68
REMARK   29  A    between atoms: _73  and  _75
REMARK   30  A    between atoms: _75  and  _76
REMARK   31  A    between atoms: _75  and  _78
REMARK   32  A    between atoms: _78  and  _79
REMARK   33  A    between atoms: _79  and  _80
REMARK   34  A    between atoms: _80  and  _81
REMARK   35  A    between atoms: _90  and  _92
REMARK   36  A    between atoms: _92  and  _93
REMARK   37  A    between atoms: _92  and  _95
REMARK   38  A    between atoms: _95  and  _96
REMARK   39  A    between atoms: _99  and  _101
REMARK   40  A    between atoms: _101  and  _102
REMARK   41  A    between atoms: _101  and  _104
REMARK   42  A    between atoms: _104  and  _105
REMARK   43  A    between atoms: _110  and  _112
REMARK   44  A    between atoms: _112  and  _113
REMARK   45  A    between atoms: _112  and  _115
REMARK   46  A    between atoms: _115  and  _116
REMARK   47  A    between atoms: _119  and  _121
REMARK   48  A    between atoms: _121  and  _122
REMARK   49  A    between atoms: _121  and  _124
REMARK   50  A    between atoms: _124  and  _125
REMARK   51  A    between atoms: _128  and  _130
REMARK   52  A    between atoms: _130  and  _131
REMARK   53  A    between atoms: _130  and  _133
REMARK   54  A    between atoms: _133  and  _134
REMARK   55  A    between atoms: _139  and  _141
REMARK   56  A    between atoms: _141  and  _142
REMARK   57  A    between atoms: _141  and  _144
REMARK   58  A    between atoms: _144  and  _145
REMARK   59  A    between atoms: _148  and  _150
REMARK   60  A    between atoms: _150  and  _151
REMARK   61  A    between atoms: _150  and  _153
REMARK   62  A    between atoms: _153  and  _154
REMARK   63  A    between atoms: _157  and  _159
REMARK   64  A    between atoms: _159  and  _160
REMARK   65  A    between atoms: _162  and  _164
REMARK   66  A    between atoms: _164  and  _165
REMARK   67  A    between atoms: _168  and  _170
REMARK   68  A    between atoms: _170  and  _171
REMARK   69  A    between atoms: _173  and  _175
REMARK   70  A    between atoms: _175  and  _176
REMARK   71  A    between atoms: _179  and  _181
REMARK   72  A    between atoms: _181  and  _182
REMARK   73  A    between atoms: _181  and  _184
REMARK   74  A    between atoms: _184  and  _185
REMARK   75  A    between atoms: _185  and  _186
REMARK   76  A    between atoms: _186  and  _187
REMARK   77  A    between atoms: _187  and  _188
REMARK   78  A    between atoms: _193  and  _194
REMARK   79  A    between atoms: _199  and  _201
REMARK   80  A    between atoms: _201  and  _202
REMARK   81  A    between atoms: _201  and  _204
REMARK   82  A    between atoms: _207  and  _209
REMARK   83  A    between atoms: _209  and  _210
REMARK   84  A    between atoms: _212  and  _214
REMARK   85  A    between atoms: _214  and  _215
REMARK   86  A    between atoms: _214  and  _217
REMARK   87  A    between atoms: _217  and  _218
REMARK   88  A    between atoms: _220  and  _222
REMARK   89  A    between atoms: _222  and  _223
REMARK   90  A    between atoms: _226  and  _228
REMARK   91  A    between atoms: _228  and  _229
REMARK   92  A    between atoms: _231  and  _233
REMARK   93  A    between atoms: _233  and  _234
REMARK   94  A    between atoms: _233  and  _236
REMARK   95  A    between atoms: _236  and  _237
REMARK   96  A    between atoms: _240  and  _242
REMARK   97  A    between atoms: _242  and  _243
REMARK   98  A    between atoms: _245  and  _247
REMARK   99  A    between atoms: _247  and  _248
REMARK  100  A    between atoms: _250  and  _252
REMARK  101  A    between atoms: _252  and  _253
REMARK  102  A    between atoms: _255  and  _257
REMARK  103  A    between atoms: _257  and  _258
REMARK  104  A    between atoms: _257  and  _260
REMARK  105  A    between atoms: _260  and  _261
REMARK  106  A    between atoms: _264  and  _266
REMARK  107  A    between atoms: _266  and  _267
REMARK  108  A    between atoms: _269  and  _271
REMARK  109  A    between atoms: _271  and  _272
REMARK  110  A    between atoms: _271  and  _274
REMARK  111  A    between atoms: _274  and  _275
REMARK  112  A    between atoms: _278  and  _280
REMARK  113  A    between atoms: _280  and  _281
REMARK  114  A    between atoms: _283  and  _285
REMARK  115  A    between atoms: _285  and  _286
REMARK  116  A    between atoms: _289  and  _291
REMARK  117  A    between atoms: _291  and  _292
REMARK  118  A    between atoms: _295  and  _297
REMARK  119  A    between atoms: _297  and  _298
REMARK  120  A    between atoms: _297  and  _300
REMARK  121  A    between atoms: _300  and  _301
REMARK  122  A    between atoms: _304  and  _306
REMARK  123  A    between atoms: _306  and  _307
REMARK  124  A    between atoms: _306  and  _309
REMARK  125  A    between atoms: _309  and  _310
REMARK  126  A    between atoms: _314  and  _315
REMARK  127  A    between atoms: _320  and  _322
REMARK  128  A    between atoms: _322  and  _323
REMARK  129  A    between atoms: _322  and  _325
REMARK  130  A    between atoms: _325  and  _326
REMARK  131  A    between atoms: _332  and  _334
REMARK  132  A    between atoms: _334  and  _335
REMARK  133  A    between atoms: _334  and  _337
REMARK  134  A    between atoms: _337  and  _338
REMARK  135  A    between atoms: _344  and  _346
REMARK  136  A    between atoms: _346  and  _347
REMARK  137  A    between atoms: _346  and  _349
REMARK  138  A    between atoms: _349  and  _350
REMARK  139  A    between atoms: _350  and  _351
REMARK  140  A    between atoms: _354  and  _356
REMARK  141  A    between atoms: _356  and  _357
REMARK  142  A    between atoms: _356  and  _359
REMARK  143  A    between atoms: _359  and  _360
REMARK  144  A    between atoms: _360  and  _361
REMARK  145  A    between atoms: _361  and  _362
REMARK  146  A    between atoms: _362  and  _363
REMARK  147  A    between atoms: _367  and  _369
REMARK  148  A    between atoms: _369  and  _370
REMARK  149  A    between atoms: _369  and  _372
REMARK  150  A    between atoms: _372  and  _373
REMARK  151  A    between atoms: _373  and  _374
REMARK  152  A    between atoms: _376  and  _378
REMARK  153  A    between atoms: _378  and  _379
REMARK  154  A    between atoms: _378  and  _381
REMARK  155  A    between atoms: _381  and  _382
REMARK  156  A    between atoms: _382  and  _383
REMARK  157  A    between atoms: _383  and  _384
REMARK  158  A    between atoms: _384  and  _385
REMARK  159  A    between atoms: _389  and  _391
REMARK  160  A    between atoms: _391  and  _392
REMARK  161  A    between atoms: _395  and  _397
REMARK  162  A    between atoms: _397  and  _398
REMARK  163  A    between atoms: _397  and  _400
REMARK  164  A    between atoms: _400  and  _401
REMARK  165  A    between atoms: _406  and  _408
REMARK  166  A    between atoms: _408  and  _409
REMARK  167  A    between atoms: _408  and  _411
REMARK  168  A    between atoms: _411  and  _412
REMARK  169  A    between atoms: _415  and  _417
REMARK  170  A    between atoms: _417  and  _418
REMARK  171  A    between atoms: _417  and  _420
REMARK  172  A    between atoms: _420  and  _421
REMARK  173  A    between atoms: _424  and  _426
REMARK  174  A    between atoms: _426  and  _427
REMARK  175  A    between atoms: _426  and  _429
REMARK  176  A    between atoms: _429  and  _430
REMARK  177  A    between atoms: _430  and  _431
REMARK  178  A    between atoms: _431  and  _432
REMARK  179  A    between atoms: _432  and  _433
REMARK  180  A    between atoms: _437  and  _439
REMARK  181  A    between atoms: _439  and  _440
REMARK  182  A    between atoms: _443  and  _445
REMARK  183  A    between atoms: _445  and  _446
REMARK  184  A    between atoms: _445  and  _448
REMARK  185  A    between atoms: _448  and  _449
REMARK  186  A    between atoms: _455  and  _457
REMARK  187  A    between atoms: _457  and  _458
REMARK  188  A    between atoms: _457  and  _460
REMARK  189  A    between atoms: _461  and  _462
REMARK  190  A    between atoms: _462  and  _463
REMARK  191  A    between atoms: _463  and  _464
REMARK  192  A    between atoms: _468  and  _470
REMARK  193  A    between atoms: _470  and  _471
REMARK  194  A    between atoms: _470  and  _473
REMARK  195  A    between atoms: _474  and  _475
REMARK  196  A    between atoms: _478  and  _480
REMARK  197  A    between atoms: _480  and  _481
REMARK  198  A    between atoms: _480  and  _483
REMARK  199  A    between atoms: _486  and  _488
REMARK  200  A    between atoms: _488  and  _489
REMARK  201  A    between atoms: _488  and  _491
REMARK  202  A    between atoms: _491  and  _492
REMARK  203  A    between atoms: _495  and  _497
REMARK  204  A    between atoms: _497  and  _498
REMARK  205  A    between atoms: _497  and  _500
REMARK  206  A    between atoms: _500  and  _501
REMARK  207  A    between atoms: _503  and  _505
REMARK  208  A    between atoms: _505  and  _506
REMARK  209  A    between atoms: _505  and  _508
REMARK  210  A    between atoms: _511  and  _513
REMARK  211  A    between atoms: _513  and  _514
REMARK  212  A    between atoms: _513  and  _516
REMARK  213  A    between atoms: _516  and  _517
REMARK  214  A    between atoms: _520  and  _522
REMARK  215  A    between atoms: _522  and  _523
REMARK  216  A    between atoms: _522  and  _525
REMARK  217  A    between atoms: _525  and  _526
REMARK                            x       y       z     vdW  Elec       q    Type
REMARK                         _______ _______ _______ _____ _____    ______ ____
ROOT
ATOM      1  O   HOH     1      -8.066   2.323   9.383  0.00  0.00    +0.000 OA
ENDROOT
TORSDOF 0
REMARK  Name = ../refined-set-2016/2r75/2r75_pocket.pdb
REMARK  217 active torsions:
REMARK  status: ('A' for Active; 'I' for Inactive)
REMARK    1  A    between atoms: _1  and  _3
REMARK    2  A    between atoms: _3  and  _4
REMARK    3  A    between atoms: _3  and  _6
REMARK    4  A    between atoms: _9  and  _11
REMARK    5  A    between atoms: _11  and  _12
REMARK    6  A    between atoms: _14  and  _16
REMARK    7  A    between atoms: _16  and  _17
REMARK    8  A    between atoms: _19  and  _21
REMARK    9  A    between atoms: _21  and  _22
REMARK   10  A    between atoms: _24  and  _26
REMARK   11  A    between atoms: _26  and  _27
REMARK   12  A    between atoms: _29  and  _31
REMARK   13  A    between atoms: _31  and  _32
REMARK   14  A    between atoms: _31  and  _34
REMARK   15  A    between atoms: _34  and  _35
REMARK   16  A    between atoms: _37  and  _39
REMARK   17  A    between atoms: _39  and  _40
REMARK   18  A    between atoms: _39  and  _42
REMARK   19  A    between atoms: _42  and  _43
REMARK   20  A    between atoms: _48  and  _50
REMARK   21  A    between atoms: _50  and  _51
REMARK   22  A    between atoms: _54  and  _56
REMARK   23  A    between atoms: _56  and  _57
REMARK   24  A    between atoms: _56  and  _59
REMARK   25  A    between atoms: _62  and  _64
REMARK   26  A    between atoms: _64  and  _65
REMARK   27  A    between atoms: _64  and  _67
REMARK   28  A    between atoms: _67  and  _68
REMARK   29  A    between atoms: _73  and  _75
REMARK   30  A    between atoms: _75  and  _76
REMARK   31  A    between atoms: _75  and  _78
REMARK   32  A    between atoms: _78  and  _79
REMARK   33  A    between atoms: _79  and  _80
REMARK   34  A    between atoms: _80  and  _81
REMARK   35  A    between atoms: _90  and  _92
REMARK   36  A    between atoms: _92  and  _93
REMARK   37  A    between atoms: _92  and  _95
REMARK   38  A    between atoms: _95  and  _96
REMARK   39  A    between atoms: _99  and  _101
REMARK   40  A    between atoms: _101  and  _102
REMARK   41  A    between atoms: _101  and  _104
REMARK   42  A    between atoms: _104  and  _105
REMARK   43  A    between atoms: _110  and  _112
REMARK   44  A    between atoms: _112  and  _113
REMARK   45  A    between atoms: _112  and  _115
REMARK   46  A    between atoms: _115  and  _116
REMARK   47  A    between atoms: _119  and  _121
REMARK   48  A    between atoms: _121  and  _122
REMARK   49  A    between atoms: _121  and  _124
REMARK   50  A    between atoms: _124  and  _125
REMARK   51  A    between atoms: _128  and  _130
REMARK   52  A    between atoms: _130  and  _131
REMARK   53  A    between atoms: _130  and  _133
REMARK   54  A    between atoms: _133  and  _134
REMARK   55  A    between atoms: _139  and  _141
REMARK   56  A    between atoms: _141  and  _142
REMARK   57  A    between atoms: _141  and  _144
REMARK   58  A    between atoms: _144  and  _145
REMARK   59  A    between atoms: _148  and  _150
REMARK   60  A    between atoms: _150  and  _151
REMARK   61  A    between atoms: _150  and  _153
REMARK   62  A    between atoms: _153  and  _154
REMARK   63  A    between atoms: _157  and  _159
REMARK   64  A    between atoms: _159  and  _160
REMARK   65  A    between atoms: _162  and  _164
REMARK   66  A    between atoms: _164  and  _165
REMARK   67  A    between atoms: _168  and  _170
REMARK   68  A    between atoms: _170  and  _171
REMARK   69  A    between atoms: _173  and  _175
REMARK   70  A    between atoms: _175  and  _176
REMARK   71  A    between atoms: _179  and  _181
REMARK   72  A    between atoms: _181  and  _182
REMARK   73  A    between atoms: _181  and  _184
REMARK   74  A    between atoms: _184  and  _185
REMARK   75  A    between atoms: _185  and  _186
REMARK   76  A    between atoms: _186  and  _187
REMARK   77  A    between atoms: _187  and  _188
REMARK   78  A    between atoms: _193  and  _194
REMARK   79  A    between atoms: _199  and  _201
REMARK   80  A    between atoms: _201  and  _202
REMARK   81  A    between atoms: _201  and  _204
REMARK   82  A    between atoms: _207  and  _209
REMARK   83  A    between atoms: _209  and  _210
REMARK   84  A    between atoms: _212  and  _214
REMARK   85  A    between atoms: _214  and  _215
REMARK   86  A    between atoms: _214  and  _217
REMARK   87  A    between atoms: _217  and  _218
REMARK   88  A    between atoms: _220  and  _222
REMARK   89  A    between atoms: _222  and  _223
REMARK   90  A    between atoms: _226  and  _228
REMARK   91  A    between atoms: _228  and  _229
REMARK   92  A    between atoms: _231  and  _233
REMARK   93  A    between atoms: _233  and  _234
REMARK   94  A    between atoms: _233  and  _236
REMARK   95  A    between atoms: _236  and  _237
REMARK   96  A    between atoms: _240  and  _242
REMARK   97  A    between atoms: _242  and  _243
REMARK   98  A    between atoms: _245  and  _247
REMARK   99  A    between atoms: _247  and  _248
REMARK  100  A    between atoms: _250  and  _252
REMARK  101  A    between atoms: _252  and  _253
REMARK  102  A    between atoms: _255  and  _257
REMARK  103  A    between atoms: _257  and  _258
REMARK  104  A    between atoms: _257  and  _260
REMARK  105  A    between atoms: _260  and  _261
REMARK  106  A    between atoms: _264  and  _266
REMARK  107  A    between atoms: _266  and  _267
REMARK  108  A    between atoms: _269  and  _271
REMARK  109  A    between atoms: _271  and  _272
REMARK  110  A    between atoms: _271  and  _274
REMARK  111  A    between atoms: _274  and  _275
REMARK  112  A    between atoms: _278  and  _280
REMARK  113  A    between atoms: _280  and  _281
REMARK  114  A    between atoms: _283  and  _285
REMARK  115  A    between atoms: _285  and  _286
REMARK  116  A    between atoms: _289  and  _291
REMARK  117  A    between atoms: _291  and  _292
REMARK  118  A    between atoms: _295  and  _297
REMARK  119  A    between atoms: _297  and  _298
REMARK  120  A    between atoms: _297  and  _300
REMARK  121  A    between atoms: _300  and  _301
REMARK  122  A    between atoms: _304  and  _306
REMARK  123  A    between atoms: _306  and  _307
REMARK  124  A    between atoms: _306  and  _309
REMARK  125  A    between atoms: _309  and  _310
REMARK  126  A    between atoms: _314  and  _315
REMARK  127  A    between atoms: _320  and  _322
REMARK  128  A    between atoms: _322  and  _323
REMARK  129  A    between atoms: _322  and  _325
REMARK  130  A    between atoms: _325  and  _326
REMARK  131  A    between atoms: _332  and  _334
REMARK  132  A    between atoms: _334  and  _335
REMARK  133  A    between atoms: _334  and  _337
REMARK  134  A    between atoms: _337  and  _338
REMARK  135  A    between atoms: _344  and  _346
REMARK  136  A    between atoms: _346  and  _347
REMARK  137  A    between atoms: _346  and  _349
REMARK  138  A    between atoms: _349  and  _350
REMARK  139  A    between atoms: _350  and  _351
REMARK  140  A    between atoms: _354  and  _356
REMARK  141  A    between atoms: _356  and  _357
REMARK  142  A    between atoms: _356  and  _359
REMARK  143  A    between atoms: _359  and  _360
REMARK  144  A    between atoms: _360  and  _361
REMARK  145  A    between atoms: _361  and  _362
REMARK  146  A    between atoms: _362  and  _363
REMARK  147  A    between atoms: _367  and  _369
REMARK  148  A    between atoms: _369  and  _370
REMARK  149  A    between atoms: _369  and  _372
REMARK  150  A    between atoms: _372  and  _373
REMARK  151  A    between atoms: _373  and  _374
REMARK  152  A    between atoms: _376  and  _378
REMARK  153  A    between atoms: _378  and  _379
REMARK  154  A    between atoms: _378  and  _381
REMARK  155  A    between atoms: _381  and  _382
REMARK  156  A    between atoms: _382  and  _383
REMARK  157  A    between atoms: _383  and  _384
REMARK  158  A    between atoms: _384  and  _385
REMARK  159  A    between atoms: _389  and  _391
REMARK  160  A    between atoms: _391  and  _392
REMARK  161  A    between atoms: _395  and  _397
REMARK  162  A    between atoms: _397  and  _398
REMARK  163  A    between atoms: _397  and  _400
REMARK  164  A    between atoms: _400  and  _401
REMARK  165  A    between atoms: _406  and  _408
REMARK  166  A    between atoms: _408  and  _409
REMARK  167  A    between atoms: _408  and  _411
REMARK  168  A    between atoms: _411  and  _412
REMARK  169  A    between atoms: _415  and  _417
REMARK  170  A    between atoms: _417  and  _418
REMARK  171  A    between atoms: _417  and  _420
REMARK  172  A    between atoms: _420  and  _421
REMARK  173  A    between atoms: _424  and  _426
REMARK  174  A    between atoms: _426  and  _427
REMARK  175  A    between atoms: _426  and  _429
REMARK  176  A    between atoms: _429  and  _430
REMARK  177  A    between atoms: _430  and  _431
REMARK  178  A    between atoms: _431  and  _432
REMARK  179  A    between atoms: _432  and  _433
REMARK  180  A    between atoms: _437  and  _439
REMARK  181  A    between atoms: _439  and  _440
REMARK  182  A    between atoms: _443  and  _445
REMARK  183  A    between atoms: _445  and  _446
REMARK  184  A    between atoms: _445  and  _448
REMARK  185  A    between atoms: _448  and  _449
REMARK  186  A    between atoms: _455  and  _457
REMARK  187  A    between atoms: _457  and  _458
REMARK  188  A    between atoms: _457  and  _460
REMARK  189  A    between atoms: _461  and  _462
REMARK  190  A    between atoms: _462  and  _463
REMARK  191  A    between atoms: _463  and  _464
REMARK  192  A    between atoms: _468  and  _470
REMARK  193  A    between atoms: _470  and  _471
REMARK  194  A    between atoms: _470  and  _473
REMARK  195  A    between atoms: _474  and  _475
REMARK  196  A    between atoms: _478  and  _480
REMARK  197  A    between atoms: _480  and  _481
REMARK  198  A    between atoms: _480  and  _483
REMARK  199  A    between atoms: _486  and  _488
REMARK  200  A    between atoms: _488  and  _489
REMARK  201  A    between atoms: _488  and  _491
REMARK  202  A    between atoms: _491  and  _492
REMARK  203  A    between atoms: _495  and  _497
REMARK  204  A    between atoms: _497  and  _498
REMARK  205  A    between atoms: _497  and  _500
REMARK  206  A    between atoms: _500  and  _501
REMARK  207  A    between atoms: _503  and  _505
REMARK  208  A    between atoms: _505  and  _506
REMARK  209  A    between atoms: _505  and  _508
REMARK  210  A    between atoms: _511  and  _513
REMARK  211  A    between atoms: _513  and  _514
REMARK  212  A    between atoms: _513  and  _516
REMARK  213  A    between atoms: _516  and  _517
REMARK  214  A    between atoms: _520  and  _522
REMARK  215  A    between atoms: _522  and  _523
REMARK  216  A    between atoms: _522  and  _525
REMARK  217  A    between atoms: _525  and  _526
REMARK                            x       y       z     vdW  Elec       q    Type
REMARK                         _______ _______ _______ _____ _____    ______ ____
ROOT
ATOM      1  O   HOH     1      -3.719   4.907   9.259  0.00  0.00    +0.000 OA
ENDROOT
TORSDOF 0
REMARK  Name = ../refined-set-2016/2r75/2r75_pocket.pdb
REMARK  217 active torsions:
REMARK  status: ('A' for Active; 'I' for Inactive)
REMARK    1  A    between atoms: _1  and  _3
REMARK    2  A    between atoms: _3  and  _4
REMARK    3  A    between atoms: _3  and  _6
REMARK    4  A    between atoms: _9  and  _11
REMARK    5  A    between atoms: _11  and  _12
REMARK    6  A    between atoms: _14  and  _16
REMARK    7  A    between atoms: _16  and  _17
REMARK    8  A    between atoms: _19  and  _21
REMARK    9  A    between atoms: _21  and  _22
REMARK   10  A    between atoms: _24  and  _26
REMARK   11  A    between atoms: _26  and  _27
REMARK   12  A    between atoms: _29  and  _31
REMARK   13  A    between atoms: _31  and  _32
REMARK   14  A    between atoms: _31  and  _34
REMARK   15  A    between atoms: _34  and  _35
REMARK   16  A    between atoms: _37  and  _39
REMARK   17  A    between atoms: _39  and  _40
REMARK   18  A    between atoms: _39  and  _42
REMARK   19  A    between atoms: _42  and  _43
REMARK   20  A    between atoms: _48  and  _50
REMARK   21  A    between atoms: _50  and  _51
REMARK   22  A    between atoms: _54  and  _56
REMARK   23  A    between atoms: _56  and  _57
REMARK   24  A    between atoms: _56  and  _59
REMARK   25  A    between atoms: _62  and  _64
REMARK   26  A    between atoms: _64  and  _65
REMARK   27  A    between atoms: _64  and  _67
REMARK   28  A    between atoms: _67  and  _68
REMARK   29  A    between atoms: _73  and  _75
REMARK   30  A    between atoms: _75  and  _76
REMARK   31  A    between atoms: _75  and  _78
REMARK   32  A    between atoms: _78  and  _79
REMARK   33  A    between atoms: _79  and  _80
REMARK   34  A    between atoms: _80  and  _81
REMARK   35  A    between atoms: _90  and  _92
REMARK   36  A    between atoms: _92  and  _93
REMARK   37  A    between atoms: _92  and  _95
REMARK   38  A    between atoms: _95  and  _96
REMARK   39  A    between atoms: _99  and  _101
REMARK   40  A    between atoms: _101  and  _102
REMARK   41  A    between atoms: _101  and  _104
REMARK   42  A    between atoms: _104  and  _105
REMARK   43  A    between atoms: _110  and  _112
REMARK   44  A    between atoms: _112  and  _113
REMARK   45  A    between atoms: _112  and  _115
REMARK   46  A    between atoms: _115  and  _116
REMARK   47  A    between atoms: _119  and  _121
REMARK   48  A    between atoms: _121  and  _122
REMARK   49  A    between atoms: _121  and  _124
REMARK   50  A    between atoms: _124  and  _125
REMARK   51  A    between atoms: _128  and  _130
REMARK   52  A    between atoms: _130  and  _131
REMARK   53  A    between atoms: _130  and  _133
REMARK   54  A    between atoms: _133  and  _134
REMARK   55  A    between atoms: _139  and  _141
REMARK   56  A    between atoms: _141  and  _142
REMARK   57  A    between atoms: _141  and  _144
REMARK   58  A    between atoms: _144  and  _145
REMARK   59  A    between atoms: _148  and  _150
REMARK   60  A    between atoms: _150  and  _151
REMARK   61  A    between atoms: _150  and  _153
REMARK   62  A    between atoms: _153  and  _154
REMARK   63  A    between atoms: _157  and  _159
REMARK   64  A    between atoms: _159  and  _160
REMARK   65  A    between atoms: _162  and  _164
REMARK   66  A    between atoms: _164  and  _165
REMARK   67  A    between atoms: _168  and  _170
REMARK   68  A    between atoms: _170  and  _171
REMARK   69  A    between atoms: _173  and  _175
REMARK   70  A    between atoms: _175  and  _176
REMARK   71  A    between atoms: _179  and  _181
REMARK   72  A    between atoms: _181  and  _182
REMARK   73  A    between atoms: _181  and  _184
REMARK   74  A    between atoms: _184  and  _185
REMARK   75  A    between atoms: _185  and  _186
REMARK   76  A    between atoms: _186  and  _187
REMARK   77  A    between atoms: _187  and  _188
REMARK   78  A    between atoms: _193  and  _194
REMARK   79  A    between atoms: _199  and  _201
REMARK   80  A    between atoms: _201  and  _202
REMARK   81  A    between atoms: _201  and  _204
REMARK   82  A    between atoms: _207  and  _209
REMARK   83  A    between atoms: _209  and  _210
REMARK   84  A    between atoms: _212  and  _214
REMARK   85  A    between atoms: _214  and  _215
REMARK   86  A    between atoms: _214  and  _217
REMARK   87  A    between atoms: _217  and  _218
REMARK   88  A    between atoms: _220  and  _222
REMARK   89  A    between atoms: _222  and  _223
REMARK   90  A    between atoms: _226  and  _228
REMARK   91  A    between atoms: _228  and  _229
REMARK   92  A    between atoms: _231  and  _233
REMARK   93  A    between atoms: _233  and  _234
REMARK   94  A    between atoms: _233  and  _236
REMARK   95  A    between atoms: _236  and  _237
REMARK   96  A    between atoms: _240  and  _242
REMARK   97  A    between atoms: _242  and  _243
REMARK   98  A    between atoms: _245  and  _247
REMARK   99  A    between atoms: _247  and  _248
REMARK  100  A    between atoms: _250  and  _252
REMARK  101  A    between atoms: _252  and  _253
REMARK  102  A    between atoms: _255  and  _257
REMARK  103  A    between atoms: _257  and  _258
REMARK  104  A    between atoms: _257  and  _260
REMARK  105  A    between atoms: _260  and  _261
REMARK  106  A    between atoms: _264  and  _266
REMARK  107  A    between atoms: _266  and  _267
REMARK  108  A    between atoms: _269  and  _271
REMARK  109  A    between atoms: _271  and  _272
REMARK  110  A    between atoms: _271  and  _274
REMARK  111  A    between atoms: _274  and  _275
REMARK  112  A    between atoms: _278  and  _280
REMARK  113  A    between atoms: _280  and  _281
REMARK  114  A    between atoms: _283  and  _285
REMARK  115  A    between atoms: _285  and  _286
REMARK  116  A    between atoms: _289  and  _291
REMARK  117  A    between atoms: _291  and  _292
REMARK  118  A    between atoms: _295  and  _297
REMARK  119  A    between atoms: _297  and  _298
REMARK  120  A    between atoms: _297  and  _300
REMARK  121  A    between atoms: _300  and  _301
REMARK  122  A    between atoms: _304  and  _306
REMARK  123  A    between atoms: _306  and  _307
REMARK  124  A    between atoms: _306  and  _309
REMARK  125  A    between atoms: _309  and  _310
REMARK  126  A    between atoms: _314  and  _315
REMARK  127  A    between atoms: _320  and  _322
REMARK  128  A    between atoms: _322  and  _323
REMARK  129  A    between atoms: _322  and  _325
REMARK  130  A    between atoms: _325  and  _326
REMARK  131  A    between atoms: _332  and  _334
REMARK  132  A    between atoms: _334  and  _335
REMARK  133  A    between atoms: _334  and  _337
REMARK  134  A    between atoms: _337  and  _338
REMARK  135  A    between atoms: _344  and  _346
REMARK  136  A    between atoms: _346  and  _347
REMARK  137  A    between atoms: _346  and  _349
REMARK  138  A    between atoms: _349  and  _350
REMARK  139  A    between atoms: _350  and  _351
REMARK  140  A    between atoms: _354  and  _356
REMARK  141  A    between atoms: _356  and  _357
REMARK  142  A    between atoms: _356  and  _359
REMARK  143  A    between atoms: _359  and  _360
REMARK  144  A    between atoms: _360  and  _361
REMARK  145  A    between atoms: _361  and  _362
REMARK  146  A    between atoms: _362  and  _363
REMARK  147  A    between atoms: _367  and  _369
REMARK  148  A    between atoms: _369  and  _370
REMARK  149  A    between atoms: _369  and  _372
REMARK  150  A    between atoms: _372  and  _373
REMARK  151  A    between atoms: _373  and  _374
REMARK  152  A    between atoms: _376  and  _378
REMARK  153  A    between atoms: _378  and  _379
REMARK  154  A    between atoms: _378  and  _381
REMARK  155  A    between atoms: _381  and  _382
REMARK  156  A    between atoms: _382  and  _383
REMARK  157  A    between atoms: _383  and  _384
REMARK  158  A    between atoms: _384  and  _385
REMARK  159  A    between atoms: _389  and  _391
REMARK  160  A    between atoms: _391  and  _392
REMARK  161  A    between atoms: _395  and  _397
REMARK  162  A    between atoms: _397  and  _398
REMARK  163  A    between atoms: _397  and  _400
REMARK  164  A    between atoms: _400  and  _401
REMARK  165  A    between atoms: _406  and  _408
REMARK  166  A    between atoms: _408  and  _409
REMARK  167  A    between atoms: _408  and  _411
REMARK  168  A    between atoms: _411  and  _412
REMARK  169  A    between atoms: _415  and  _417
REMARK  170  A    between atoms: _417  and  _418
REMARK  171  A    between atoms: _417  and  _420
REMARK  172  A    between atoms: _420  and  _421
REMARK  173  A    between atoms: _424  and  _426
REMARK  174  A    between atoms: _426  and  _427
REMARK  175  A    between atoms: _426  and  _429
REMARK  176  A    between atoms: _429  and  _430
REMARK  177  A    between atoms: _430  and  _431
REMARK  178  A    between atoms: _431  and  _432
REMARK  179  A    between atoms: _432  and  _433
REMARK  180  A    between atoms: _437  and  _439
REMARK  181  A    between atoms: _439  and  _440
REMARK  182  A    between atoms: _443  and  _445
REMARK  183  A    between atoms: _445  and  _446
REMARK  184  A    between atoms: _445  and  _448
REMARK  185  A    between atoms: _448  and  _449
REMARK  186  A    between atoms: _455  and  _457
REMARK  187  A    between atoms: _457  and  _458
REMARK  188  A    between atoms: _457  and  _460
REMARK  189  A    between atoms: _461  and  _462
REMARK  190  A    between atoms: _462  and  _463
REMARK  191  A    between atoms: _463  and  _464
REMARK  192  A    between atoms: _468  and  _470
REMARK  193  A    between atoms: _470  and  _471
REMARK  194  A    between atoms: _470  and  _473
REMARK  195  A    between atoms: _474  and  _475
REMARK  196  A    between atoms: _478  and  _480
REMARK  197  A    between atoms: _480  and  _481
REMARK  198  A    between atoms: _480  and  _483
REMARK  199  A    between atoms: _486  and  _488
REMARK  200  A    between atoms: _488  and  _489
REMARK  201  A    between atoms: _488  and  _491
REMARK  202  A    between atoms: _491  and  _492
REMARK  203  A    between atoms: _495  and  _497
REMARK  204  A    between atoms: _497  and  _498
REMARK  205  A    between atoms: _497  and  _500
REMARK  206  A    between atoms: _500  and  _501
REMARK  207  A    between atoms: _503  and  _505
REMARK  208  A    between atoms: _505  and  _506
REMARK  209  A    between atoms: _505  and  _508
REMARK  210  A    between atoms: _511  and  _513
REMARK  211  A    between atoms: _513  and  _514
REMARK  212  A    between atoms: _513  and  _516
REMARK  213  A    between atoms: _516  and  _517
REMARK  214  A    between atoms: _520  and  _522
REMARK  215  A    between atoms: _522  and  _523
REMARK  216  A    between atoms: _522  and  _525
REMARK  217  A    between atoms: _525  and  _526
REMARK                            x       y       z     vdW  Elec       q    Type
REMARK                         _______ _______ _______ _____ _____    ______ ____
ROOT
ATOM      1  O   HOH     1     -17.213  -4.595   6.744  0.00  0.00    +0.000 OA
ENDROOT
TORSDOF 0
REMARK  Name = ../refined-set-2016/2r75/2r75_pocket.pdb
REMARK  217 active torsions:
REMARK  status: ('A' for Active; 'I' for Inactive)
REMARK    1  A    between atoms: _1  and  _3
REMARK    2  A    between atoms: _3  and  _4
REMARK    3  A    between atoms: _3  and  _6
REMARK    4  A    between atoms: _9  and  _11
REMARK    5  A    between atoms: _11  and  _12
REMARK    6  A    between atoms: _14  and  _16
REMARK    7  A    between atoms: _16  and  _17
REMARK    8  A    between atoms: _19  and  _21
REMARK    9  A    between atoms: _21  and  _22
REMARK   10  A    between atoms: _24  and  _26
REMARK   11  A    between atoms: _26  and  _27
REMARK   12  A    between atoms: _29  and  _31
REMARK   13  A    between atoms: _31  and  _32
REMARK   14  A    between atoms: _31  and  _34
REMARK   15  A    between atoms: _34  and  _35
REMARK   16  A    between atoms: _37  and  _39
REMARK   17  A    between atoms: _39  and  _40
REMARK   18  A    between atoms: _39  and  _42
REMARK   19  A    between atoms: _42  and  _43
REMARK   20  A    between atoms: _48  and  _50
REMARK   21  A    between atoms: _50  and  _51
REMARK   22  A    between atoms: _54  and  _56
REMARK   23  A    between atoms: _56  and  _57
REMARK   24  A    between atoms: _56  and  _59
REMARK   25  A    between atoms: _62  and  _64
REMARK   26  A    between atoms: _64  and  _65
REMARK   27  A    between atoms: _64  and  _67
REMARK   28  A    between atoms: _67  and  _68
REMARK   29  A    between atoms: _73  and  _75
REMARK   30  A    between atoms: _75  and  _76
REMARK   31  A    between atoms: _75  and  _78
REMARK   32  A    between atoms: _78  and  _79
REMARK   33  A    between atoms: _79  and  _80
REMARK   34  A    between atoms: _80  and  _81
REMARK   35  A    between atoms: _90  and  _92
REMARK   36  A    between atoms: _92  and  _93
REMARK   37  A    between atoms: _92  and  _95
REMARK   38  A    between atoms: _95  and  _96
REMARK   39  A    between atoms: _99  and  _101
REMARK   40  A    between atoms: _101  and  _102
REMARK   41  A    between atoms: _101  and  _104
REMARK   42  A    between atoms: _104  and  _105
REMARK   43  A    between atoms: _110  and  _112
REMARK   44  A    between atoms: _112  and  _113
REMARK   45  A    between atoms: _112  and  _115
REMARK   46  A    between atoms: _115  and  _116
REMARK   47  A    between atoms: _119  and  _121
REMARK   48  A    between atoms: _121  and  _122
REMARK   49  A    between atoms: _121  and  _124
REMARK   50  A    between atoms: _124  and  _125
REMARK   51  A    between atoms: _128  and  _130
REMARK   52  A    between atoms: _130  and  _131
REMARK   53  A    between atoms: _130  and  _133
REMARK   54  A    between atoms: _133  and  _134
REMARK   55  A    between atoms: _139  and  _141
REMARK   56  A    between atoms: _141  and  _142
REMARK   57  A    between atoms: _141  and  _144
REMARK   58  A    between atoms: _144  and  _145
REMARK   59  A    between atoms: _148  and  _150
REMARK   60  A    between atoms: _150  and  _151
REMARK   61  A    between atoms: _150  and  _153
REMARK   62  A    between atoms: _153  and  _154
REMARK   63  A    between atoms: _157  and  _159
REMARK   64  A    between atoms: _159  and  _160
REMARK   65  A    between atoms: _162  and  _164
REMARK   66  A    between atoms: _164  and  _165
REMARK   67  A    between atoms: _168  and  _170
REMARK   68  A    between atoms: _170  and  _171
REMARK   69  A    between atoms: _173  and  _175
REMARK   70  A    between atoms: _175  and  _176
REMARK   71  A    between atoms: _179  and  _181
REMARK   72  A    between atoms: _181  and  _182
REMARK   73  A    between atoms: _181  and  _184
REMARK   74  A    between atoms: _184  and  _185
REMARK   75  A    between atoms: _185  and  _186
REMARK   76  A    between atoms: _186  and  _187
REMARK   77  A    between atoms: _187  and  _188
REMARK   78  A    between atoms: _193  and  _194
REMARK   79  A    between atoms: _199  and  _201
REMARK   80  A    between atoms: _201  and  _202
REMARK   81  A    between atoms: _201  and  _204
REMARK   82  A    between atoms: _207  and  _209
REMARK   83  A    between atoms: _209  and  _210
REMARK   84  A    between atoms: _212  and  _214
REMARK   85  A    between atoms: _214  and  _215
REMARK   86  A    between atoms: _214  and  _217
REMARK   87  A    between atoms: _217  and  _218
REMARK   88  A    between atoms: _220  and  _222
REMARK   89  A    between atoms: _222  and  _223
REMARK   90  A    between atoms: _226  and  _228
REMARK   91  A    between atoms: _228  and  _229
REMARK   92  A    between atoms: _231  and  _233
REMARK   93  A    between atoms: _233  and  _234
REMARK   94  A    between atoms: _233  and  _236
REMARK   95  A    between atoms: _236  and  _237
REMARK   96  A    between atoms: _240  and  _242
REMARK   97  A    between atoms: _242  and  _243
REMARK   98  A    between atoms: _245  and  _247
REMARK   99  A    between atoms: _247  and  _248
REMARK  100  A    between atoms: _250  and  _252
REMARK  101  A    between atoms: _252  and  _253
REMARK  102  A    between atoms: _255  and  _257
REMARK  103  A    between atoms: _257  and  _258
REMARK  104  A    between atoms: _257  and  _260
REMARK  105  A    between atoms: _260  and  _261
REMARK  106  A    between atoms: _264  and  _266
REMARK  107  A    between atoms: _266  and  _267
REMARK  108  A    between atoms: _269  and  _271
REMARK  109  A    between atoms: _271  and  _272
REMARK  110  A    between atoms: _271  and  _274
REMARK  111  A    between atoms: _274  and  _275
REMARK  112  A    between atoms: _278  and  _280
REMARK  113  A    between atoms: _280  and  _281
REMARK  114  A    between atoms: _283  and  _285
REMARK  115  A    between atoms: _285  and  _286
REMARK  116  A    between atoms: _289  and  _291
REMARK  117  A    between atoms: _291  and  _292
REMARK  118  A    between atoms: _295  and  _297
REMARK  119  A    between atoms: _297  and  _298
REMARK  120  A    between atoms: _297  and  _300
REMARK  121  A    between atoms: _300  and  _301
REMARK  122  A    between atoms: _304  and  _306
REMARK  123  A    between atoms: _306  and  _307
REMARK  124  A    between atoms: _306  and  _309
REMARK  125  A    between atoms: _309  and  _310
REMARK  126  A    between atoms: _314  and  _315
REMARK  127  A    between atoms: _320  and  _322
REMARK  128  A    between atoms: _322  and  _323
REMARK  129  A    between atoms: _322  and  _325
REMARK  130  A    between atoms: _325  and  _326
REMARK  131  A    between atoms: _332  and  _334
REMARK  132  A    between atoms: _334  and  _335
REMARK  133  A    between atoms: _334  and  _337
REMARK  134  A    between atoms: _337  and  _338
REMARK  135  A    between atoms: _344  and  _346
REMARK  136  A    between atoms: _346  and  _347
REMARK  137  A    between atoms: _346  and  _349
REMARK  138  A    between atoms: _349  and  _350
REMARK  139  A    between atoms: _350  and  _351
REMARK  140  A    between atoms: _354  and  _356
REMARK  141  A    between atoms: _356  and  _357
REMARK  142  A    between atoms: _356  and  _359
REMARK  143  A    between atoms: _359  and  _360
REMARK  144  A    between atoms: _360  and  _361
REMARK  145  A    between atoms: _361  and  _362
REMARK  146  A    between atoms: _362  and  _363
REMARK  147  A    between atoms: _367  and  _369
REMARK  148  A    between atoms: _369  and  _370
REMARK  149  A    between atoms: _369  and  _372
REMARK  150  A    between atoms: _372  and  _373
REMARK  151  A    between atoms: _373  and  _374
REMARK  152  A    between atoms: _376  and  _378
REMARK  153  A    between atoms: _378  and  _379
REMARK  154  A    between atoms: _378  and  _381
REMARK  155  A    between atoms: _381  and  _382
REMARK  156  A    between atoms: _382  and  _383
REMARK  157  A    between atoms: _383  and  _384
REMARK  158  A    between atoms: _384  and  _385
REMARK  159  A    between atoms: _389  and  _391
REMARK  160  A    between atoms: _391  and  _392
REMARK  161  A    between atoms: _395  and  _397
REMARK  162  A    between atoms: _397  and  _398
REMARK  163  A    between atoms: _397  and  _400
REMARK  164  A    between atoms: _400  and  _401
REMARK  165  A    between atoms: _406  and  _408
REMARK  166  A    between atoms: _408  and  _409
REMARK  167  A    between atoms: _408  and  _411
REMARK  168  A    between atoms: _411  and  _412
REMARK  169  A    between atoms: _415  and  _417
REMARK  170  A    between atoms: _417  and  _418
REMARK  171  A    between atoms: _417  and  _420
REMARK  172  A    between atoms: _420  and  _421
REMARK  173  A    between atoms: _424  and  _426
REMARK  174  A    between atoms: _426  and  _427
REMARK  175  A    between atoms: _426  and  _429
REMARK  176  A    between atoms: _429  and  _430
REMARK  177  A    between atoms: _430  and  _431
REMARK  178  A    between atoms: _431  and  _432
REMARK  179  A    between atoms: _432  and  _433
REMARK  180  A    between atoms: _437  and  _439
REMARK  181  A    between atoms: _439  and  _440
REMARK  182  A    between atoms: _443  and  _445
REMARK  183  A    between atoms: _445  and  _446
REMARK  184  A    between atoms: _445  and  _448
REMARK  185  A    between atoms: _448  and  _449
REMARK  186  A    between atoms: _455  and  _457
REMARK  187  A    between atoms: _457  and  _458
REMARK  188  A    between atoms: _457  and  _460
REMARK  189  A    between atoms: _461  and  _462
REMARK  190  A    between atoms: _462  and  _463
REMARK  191  A    between atoms: _463  and  _464
REMARK  192  A    between atoms: _468  and  _470
REMARK  193  A    between atoms: _470  and  _471
REMARK  194  A    between atoms: _470  and  _473
REMARK  195  A    between atoms: _474  and  _475
REMARK  196  A    between atoms: _478  and  _480
REMARK  197  A    between atoms: _480  and  _481
REMARK  198  A    between atoms: _480  and  _483
REMARK  199  A    between atoms: _486  and  _488
REMARK  200  A    between atoms: _488  and  _489
REMARK  201  A    between atoms: _488  and  _491
REMARK  202  A    between atoms: _491  and  _492
REMARK  203  A    between atoms: _495  and  _497
REMARK  204  A    between atoms: _497  and  _498
REMARK  205  A    between atoms: _497  and  _500
REMARK  206  A    between atoms: _500  and  _501
REMARK  207  A    between atoms: _503  and  _505
REMARK  208  A    between atoms: _505  and  _506
REMARK  209  A    between atoms: _505  and  _508
REMARK  210  A    between atoms: _511  and  _513
REMARK  211  A    between atoms: _513  and  _514
REMARK  212  A    between atoms: _513  and  _516
REMARK  213  A    between atoms: _516  and  _517
REMARK  214  A    between atoms: _520  and  _522
REMARK  215  A    between atoms: _522  and  _523
REMARK  216  A    between atoms: _522  and  _525
REMARK  217  A    between atoms: _525  and  _526
REMARK                            x       y       z     vdW  Elec       q    Type
REMARK                         _______ _______ _______ _____ _____    ______ ____
ROOT
ATOM      1  O   HOH     1      -1.087  -5.217  14.409  0.00  0.00    +0.000 OA
ENDROOT
TORSDOF 0
REMARK  Name = ../refined-set-2016/2r75/2r75_pocket.pdb
REMARK  217 active torsions:
REMARK  status: ('A' for Active; 'I' for Inactive)
REMARK    1  A    between atoms: _1  and  _3
REMARK    2  A    between atoms: _3  and  _4
REMARK    3  A    between atoms: _3  and  _6
REMARK    4  A    between atoms: _9  and  _11
REMARK    5  A    between atoms: _11  and  _12
REMARK    6  A    between atoms: _14  and  _16
REMARK    7  A    between atoms: _16  and  _17
REMARK    8  A    between atoms: _19  and  _21
REMARK    9  A    between atoms: _21  and  _22
REMARK   10  A    between atoms: _24  and  _26
REMARK   11  A    between atoms: _26  and  _27
REMARK   12  A    between atoms: _29  and  _31
REMARK   13  A    between atoms: _31  and  _32
REMARK   14  A    between atoms: _31  and  _34
REMARK   15  A    between atoms: _34  and  _35
REMARK   16  A    between atoms: _37  and  _39
REMARK   17  A    between atoms: _39  and  _40
REMARK   18  A    between atoms: _39  and  _42
REMARK   19  A    between atoms: _42  and  _43
REMARK   20  A    between atoms: _48  and  _50
REMARK   21  A    between atoms: _50  and  _51
REMARK   22  A    between atoms: _54  and  _56
REMARK   23  A    between atoms: _56  and  _57
REMARK   24  A    between atoms: _56  and  _59
REMARK   25  A    between atoms: _62  and  _64
REMARK   26  A    between atoms: _64  and  _65
REMARK   27  A    between atoms: _64  and  _67
REMARK   28  A    between atoms: _67  and  _68
REMARK   29  A    between atoms: _73  and  _75
REMARK   30  A    between atoms: _75  and  _76
REMARK   31  A    between atoms: _75  and  _78
REMARK   32  A    between atoms: _78  and  _79
REMARK   33  A    between atoms: _79  and  _80
REMARK   34  A    between atoms: _80  and  _81
REMARK   35  A    between atoms: _90  and  _92
REMARK   36  A    between atoms: _92  and  _93
REMARK   37  A    between atoms: _92  and  _95
REMARK   38  A    between atoms: _95  and  _96
REMARK   39  A    between atoms: _99  and  _101
REMARK   40  A    between atoms: _101  and  _102
REMARK   41  A    between atoms: _101  and  _104
REMARK   42  A    between atoms: _104  and  _105
REMARK   43  A    between atoms: _110  and  _112
REMARK   44  A    between atoms: _112  and  _113
REMARK   45  A    between atoms: _112  and  _115
REMARK   46  A    between atoms: _115  and  _116
REMARK   47  A    between atoms: _119  and  _121
REMARK   48  A    between atoms: _121  and  _122
REMARK   49  A    between atoms: _121  and  _124
REMARK   50  A    between atoms: _124  and  _125
REMARK   51  A    between atoms: _128  and  _130
REMARK   52  A    between atoms: _130  and  _131
REMARK   53  A    between atoms: _130  and  _133
REMARK   54  A    between atoms: _133  and  _134
REMARK   55  A    between atoms: _139  and  _141
REMARK   56  A    between atoms: _141  and  _142
REMARK   57  A    between atoms: _141  and  _144
REMARK   58  A    between atoms: _144  and  _145
REMARK   59  A    between atoms: _148  and  _150
REMARK   60  A    between atoms: _150  and  _151
REMARK   61  A    between atoms: _150  and  _153
REMARK   62  A    between atoms: _153  and  _154
REMARK   63  A    between atoms: _157  and  _159
REMARK   64  A    between atoms: _159  and  _160
REMARK   65  A    between atoms: _162  and  _164
REMARK   66  A    between atoms: _164  and  _165
REMARK   67  A    between atoms: _168  and  _170
REMARK   68  A    between atoms: _170  and  _171
REMARK   69  A    between atoms: _173  and  _175
REMARK   70  A    between atoms: _175  and  _176
REMARK   71  A    between atoms: _179  and  _181
REMARK   72  A    between atoms: _181  and  _182
REMARK   73  A    between atoms: _181  and  _184
REMARK   74  A    between atoms: _184  and  _185
REMARK   75  A    between atoms: _185  and  _186
REMARK   76  A    between atoms: _186  and  _187
REMARK   77  A    between atoms: _187  and  _188
REMARK   78  A    between atoms: _193  and  _194
REMARK   79  A    between atoms: _199  and  _201
REMARK   80  A    between atoms: _201  and  _202
REMARK   81  A    between atoms: _201  and  _204
REMARK   82  A    between atoms: _207  and  _209
REMARK   83  A    between atoms: _209  and  _210
REMARK   84  A    between atoms: _212  and  _214
REMARK   85  A    between atoms: _214  and  _215
REMARK   86  A    between atoms: _214  and  _217
REMARK   87  A    between atoms: _217  and  _218
REMARK   88  A    between atoms: _220  and  _222
REMARK   89  A    between atoms: _222  and  _223
REMARK   90  A    between atoms: _226  and  _228
REMARK   91  A    between atoms: _228  and  _229
REMARK   92  A    between atoms: _231  and  _233
REMARK   93  A    between atoms: _233  and  _234
REMARK   94  A    between atoms: _233  and  _236
REMARK   95  A    between atoms: _236  and  _237
REMARK   96  A    between atoms: _240  and  _242
REMARK   97  A    between atoms: _242  and  _243
REMARK   98  A    between atoms: _245  and  _247
REMARK   99  A    between atoms: _247  and  _248
REMARK  100  A    between atoms: _250  and  _252
REMARK  101  A    between atoms: _252  and  _253
REMARK  102  A    between atoms: _255  and  _257
REMARK  103  A    between atoms: _257  and  _258
REMARK  104  A    between atoms: _257  and  _260
REMARK  105  A    between atoms: _260  and  _261
REMARK  106  A    between atoms: _264  and  _266
REMARK  107  A    between atoms: _266  and  _267
REMARK  108  A    between atoms: _269  and  _271
REMARK  109  A    between atoms: _271  and  _272
REMARK  110  A    between atoms: _271  and  _274
REMARK  111  A    between atoms: _274  and  _275
REMARK  112  A    between atoms: _278  and  _280
REMARK  113  A    between atoms: _280  and  _281
REMARK  114  A    between atoms: _283  and  _285
REMARK  115  A    between atoms: _285  and  _286
REMARK  116  A    between atoms: _289  and  _291
REMARK  117  A    between atoms: _291  and  _292
REMARK  118  A    between atoms: _295  and  _297
REMARK  119  A    between atoms: _297  and  _298
REMARK  120  A    between atoms: _297  and  _300
REMARK  121  A    between atoms: _300  and  _301
REMARK  122  A    between atoms: _304  and  _306
REMARK  123  A    between atoms: _306  and  _307
REMARK  124  A    between atoms: _306  and  _309
REMARK  125  A    between atoms: _309  and  _310
REMARK  126  A    between atoms: _314  and  _315
REMARK  127  A    between atoms: _320  and  _322
REMARK  128  A    between atoms: _322  and  _323
REMARK  129  A    between atoms: _322  and  _325
REMARK  130  A    between atoms: _325  and  _326
REMARK  131  A    between atoms: _332  and  _334
REMARK  132  A    between atoms: _334  and  _335
REMARK  133  A    between atoms: _334  and  _337
REMARK  134  A    between atoms: _337  and  _338
REMARK  135  A    between atoms: _344  and  _346
REMARK  136  A    between atoms: _346  and  _347
REMARK  137  A    between atoms: _346  and  _349
REMARK  138  A    between atoms: _349  and  _350
REMARK  139  A    between atoms: _350  and  _351
REMARK  140  A    between atoms: _354  and  _356
REMARK  141  A    between atoms: _356  and  _357
REMARK  142  A    between atoms: _356  and  _359
REMARK  143  A    between atoms: _359  and  _360
REMARK  144  A    between atoms: _360  and  _361
REMARK  145  A    between atoms: _361  and  _362
REMARK  146  A    between atoms: _362  and  _363
REMARK  147  A    between atoms: _367  and  _369
REMARK  148  A    between atoms: _369  and  _370
REMARK  149  A    between atoms: _369  and  _372
REMARK  150  A    between atoms: _372  and  _373
REMARK  151  A    between atoms: _373  and  _374
REMARK  152  A    between atoms: _376  and  _378
REMARK  153  A    between atoms: _378  and  _379
REMARK  154  A    between atoms: _378  and  _381
REMARK  155  A    between atoms: _381  and  _382
REMARK  156  A    between atoms: _382  and  _383
REMARK  157  A    between atoms: _383  and  _384
REMARK  158  A    between atoms: _384  and  _385
REMARK  159  A    between atoms: _389  and  _391
REMARK  160  A    between atoms: _391  and  _392
REMARK  161  A    between atoms: _395  and  _397
REMARK  162  A    between atoms: _397  and  _398
REMARK  163  A    between atoms: _397  and  _400
REMARK  164  A    between atoms: _400  and  _401
REMARK  165  A    between atoms: _406  and  _408
REMARK  166  A    between atoms: _408  and  _409
REMARK  167  A    between atoms: _408  and  _411
REMARK  168  A    between atoms: _411  and  _412
REMARK  169  A    between atoms: _415  and  _417
REMARK  170  A    between atoms: _417  and  _418
REMARK  171  A    between atoms: _417  and  _420
REMARK  172  A    between atoms: _420  and  _421
REMARK  173  A    between atoms: _424  and  _426
REMARK  174  A    between atoms: _426  and  _427
REMARK  175  A    between atoms: _426  and  _429
REMARK  176  A    between atoms: _429  and  _430
REMARK  177  A    between atoms: _430  and  _431
REMARK  178  A    between atoms: _431  and  _432
REMARK  179  A    between atoms: _432  and  _433
REMARK  180  A    between atoms: _437  and  _439
REMARK  181  A    between atoms: _439  and  _440
REMARK  182  A    between atoms: _443  and  _445
REMARK  183  A    between atoms: _445  and  _446
REMARK  184  A    between atoms: _445  and  _448
REMARK  185  A    between atoms: _448  and  _449
REMARK  186  A    between atoms: _455  and  _457
REMARK  187  A    between atoms: _457  and  _458
REMARK  188  A    between atoms: _457  and  _460
REMARK  189  A    between atoms: _461  and  _462
REMARK  190  A    between atoms: _462  and  _463
REMARK  191  A    between atoms: _463  and  _464
REMARK  192  A    between atoms: _468  and  _470
REMARK  193  A    between atoms: _470  and  _471
REMARK  194  A    between atoms: _470  and  _473
REMARK  195  A    between atoms: _474  and  _475
REMARK  196  A    between atoms: _478  and  _480
REMARK  197  A    between atoms: _480  and  _481
REMARK  198  A    between atoms: _480  and  _483
REMARK  199  A    between atoms: _486  and  _488
REMARK  200  A    between atoms: _488  and  _489
REMARK  201  A    between atoms: _488  and  _491
REMARK  202  A    between atoms: _491  and  _492
REMARK  203  A    between atoms: _495  and  _497
REMARK  204  A    between atoms: _497  and  _498
REMARK  205  A    between atoms: _497  and  _500
REMARK  206  A    between atoms: _500  and  _501
REMARK  207  A    between atoms: _503  and  _505
REMARK  208  A    between atoms: _505  and  _506
REMARK  209  A    between atoms: _505  and  _508
REMARK  210  A    between atoms: _511  and  _513
REMARK  211  A    between atoms: _513  and  _514
REMARK  212  A    between atoms: _513  and  _516
REMARK  213  A    between atoms: _516  and  _517
REMARK  214  A    between atoms: _520  and  _522
REMARK  215  A    between atoms: _522  and  _523
REMARK  216  A    between atoms: _522  and  _525
REMARK  217  A    between atoms: _525  and  _526
REMARK                            x       y       z     vdW  Elec       q    Type
REMARK                         _______ _______ _______ _____ _____    ______ ____
ROOT
ATOM      1  O   HOH     1     -12.153  -6.594  14.923  0.00  0.00    +0.000 OA
ENDROOT
TORSDOF 0
REMARK  Name = ../refined-set-2016/2r75/2r75_pocket.pdb
REMARK  217 active torsions:
REMARK  status: ('A' for Active; 'I' for Inactive)
REMARK    1  A    between atoms: _1  and  _3
REMARK    2  A    between atoms: _3  and  _4
REMARK    3  A    between atoms: _3  and  _6
REMARK    4  A    between atoms: _9  and  _11
REMARK    5  A    between atoms: _11  and  _12
REMARK    6  A    between atoms: _14  and  _16
REMARK    7  A    between atoms: _16  and  _17
REMARK    8  A    between atoms: _19  and  _21
REMARK    9  A    between atoms: _21  and  _22
REMARK   10  A    between atoms: _24  and  _26
REMARK   11  A    between atoms: _26  and  _27
REMARK   12  A    between atoms: _29  and  _31
REMARK   13  A    between atoms: _31  and  _32
REMARK   14  A    between atoms: _31  and  _34
REMARK   15  A    between atoms: _34  and  _35
REMARK   16  A    between atoms: _37  and  _39
REMARK   17  A    between atoms: _39  and  _40
REMARK   18  A    between atoms: _39  and  _42
REMARK   19  A    between atoms: _42  and  _43
REMARK   20  A    between atoms: _48  and  _50
REMARK   21  A    between atoms: _50  and  _51
REMARK   22  A    between atoms: _54  and  _56
REMARK   23  A    between atoms: _56  and  _57
REMARK   24  A    between atoms: _56  and  _59
REMARK   25  A    between atoms: _62  and  _64
REMARK   26  A    between atoms: _64  and  _65
REMARK   27  A    between atoms: _64  and  _67
REMARK   28  A    between atoms: _67  and  _68
REMARK   29  A    between atoms: _73  and  _75
REMARK   30  A    between atoms: _75  and  _76
REMARK   31  A    between atoms: _75  and  _78
REMARK   32  A    between atoms: _78  and  _79
REMARK   33  A    between atoms: _79  and  _80
REMARK   34  A    between atoms: _80  and  _81
REMARK   35  A    between atoms: _90  and  _92
REMARK   36  A    between atoms: _92  and  _93
REMARK   37  A    between atoms: _92  and  _95
REMARK   38  A    between atoms: _95  and  _96
REMARK   39  A    between atoms: _99  and  _101
REMARK   40  A    between atoms: _101  and  _102
REMARK   41  A    between atoms: _101  and  _104
REMARK   42  A    between atoms: _104  and  _105
REMARK   43  A    between atoms: _110  and  _112
REMARK   44  A    between atoms: _112  and  _113
REMARK   45  A    between atoms: _112  and  _115
REMARK   46  A    between atoms: _115  and  _116
REMARK   47  A    between atoms: _119  and  _121
REMARK   48  A    between atoms: _121  and  _122
REMARK   49  A    between atoms: _121  and  _124
REMARK   50  A    between atoms: _124  and  _125
REMARK   51  A    between atoms: _128  and  _130
REMARK   52  A    between atoms: _130  and  _131
REMARK   53  A    between atoms: _130  and  _133
REMARK   54  A    between atoms: _133  and  _134
REMARK   55  A    between atoms: _139  and  _141
REMARK   56  A    between atoms: _141  and  _142
REMARK   57  A    between atoms: _141  and  _144
REMARK   58  A    between atoms: _144  and  _145
REMARK   59  A    between atoms: _148  and  _150
REMARK   60  A    between atoms: _150  and  _151
REMARK   61  A    between atoms: _150  and  _153
REMARK   62  A    between atoms: _153  and  _154
REMARK   63  A    between atoms: _157  and  _159
REMARK   64  A    between atoms: _159  and  _160
REMARK   65  A    between atoms: _162  and  _164
REMARK   66  A    between atoms: _164  and  _165
REMARK   67  A    between atoms: _168  and  _170
REMARK   68  A    between atoms: _170  and  _171
REMARK   69  A    between atoms: _173  and  _175
REMARK   70  A    between atoms: _175  and  _176
REMARK   71  A    between atoms: _179  and  _181
REMARK   72  A    between atoms: _181  and  _182
REMARK   73  A    between atoms: _181  and  _184
REMARK   74  A    between atoms: _184  and  _185
REMARK   75  A    between atoms: _185  and  _186
REMARK   76  A    between atoms: _186  and  _187
REMARK   77  A    between atoms: _187  and  _188
REMARK   78  A    between atoms: _193  and  _194
REMARK   79  A    between atoms: _199  and  _201
REMARK   80  A    between atoms: _201  and  _202
REMARK   81  A    between atoms: _201  and  _204
REMARK   82  A    between atoms: _207  and  _209
REMARK   83  A    between atoms: _209  and  _210
REMARK   84  A    between atoms: _212  and  _214
REMARK   85  A    between atoms: _214  and  _215
REMARK   86  A    between atoms: _214  and  _217
REMARK   87  A    between atoms: _217  and  _218
REMARK   88  A    between atoms: _220  and  _222
REMARK   89  A    between atoms: _222  and  _223
REMARK   90  A    between atoms: _226  and  _228
REMARK   91  A    between atoms: _228  and  _229
REMARK   92  A    between atoms: _231  and  _233
REMARK   93  A    between atoms: _233  and  _234
REMARK   94  A    between atoms: _233  and  _236
REMARK   95  A    between atoms: _236  and  _237
REMARK   96  A    between atoms: _240  and  _242
REMARK   97  A    between atoms: _242  and  _243
REMARK   98  A    between atoms: _245  and  _247
REMARK   99  A    between atoms: _247  and  _248
REMARK  100  A    between atoms: _250  and  _252
REMARK  101  A    between atoms: _252  and  _253
REMARK  102  A    between atoms: _255  and  _257
REMARK  103  A    between atoms: _257  and  _258
REMARK  104  A    between atoms: _257  and  _260
REMARK  105  A    between atoms: _260  and  _261
REMARK  106  A    between atoms: _264  and  _266
REMARK  107  A    between atoms: _266  and  _267
REMARK  108  A    between atoms: _269  and  _271
REMARK  109  A    between atoms: _271  and  _272
REMARK  110  A    between atoms: _271  and  _274
REMARK  111  A    between atoms: _274  and  _275
REMARK  112  A    between atoms: _278  and  _280
REMARK  113  A    between atoms: _280  and  _281
REMARK  114  A    between atoms: _283  and  _285
REMARK  115  A    between atoms: _285  and  _286
REMARK  116  A    between atoms: _289  and  _291
REMARK  117  A    between atoms: _291  and  _292
REMARK  118  A    between atoms: _295  and  _297
REMARK  119  A    between atoms: _297  and  _298
REMARK  120  A    between atoms: _297  and  _300
REMARK  121  A    between atoms: _300  and  _301
REMARK  122  A    between atoms: _304  and  _306
REMARK  123  A    between atoms: _306  and  _307
REMARK  124  A    between atoms: _306  and  _309
REMARK  125  A    between atoms: _309  and  _310
REMARK  126  A    between atoms: _314  and  _315
REMARK  127  A    between atoms: _320  and  _322
REMARK  128  A    between atoms: _322  and  _323
REMARK  129  A    between atoms: _322  and  _325
REMARK  130  A    between atoms: _325  and  _326
REMARK  131  A    between atoms: _332  and  _334
REMARK  132  A    between atoms: _334  and  _335
REMARK  133  A    between atoms: _334  and  _337
REMARK  134  A    between atoms: _337  and  _338
REMARK  135  A    between atoms: _344  and  _346
REMARK  136  A    between atoms: _346  and  _347
REMARK  137  A    between atoms: _346  and  _349
REMARK  138  A    between atoms: _349  and  _350
REMARK  139  A    between atoms: _350  and  _351
REMARK  140  A    between atoms: _354  and  _356
REMARK  141  A    between atoms: _356  and  _357
REMARK  142  A    between atoms: _356  and  _359
REMARK  143  A    between atoms: _359  and  _360
REMARK  144  A    between atoms: _360  and  _361
REMARK  145  A    between atoms: _361  and  _362
REMARK  146  A    between atoms: _362  and  _363
REMARK  147  A    between atoms: _367  and  _369
REMARK  148  A    between atoms: _369  and  _370
REMARK  149  A    between atoms: _369  and  _372
REMARK  150  A    between atoms: _372  and  _373
REMARK  151  A    between atoms: _373  and  _374
REMARK  152  A    between atoms: _376  and  _378
REMARK  153  A    between atoms: _378  and  _379
REMARK  154  A    between atoms: _378  and  _381
REMARK  155  A    between atoms: _381  and  _382
REMARK  156  A    between atoms: _382  and  _383
REMARK  157  A    between atoms: _383  and  _384
REMARK  158  A    between atoms: _384  and  _385
REMARK  159  A    between atoms: _389  and  _391
REMARK  160  A    between atoms: _391  and  _392
REMARK  161  A    between atoms: _395  and  _397
REMARK  162  A    between atoms: _397  and  _398
REMARK  163  A    between atoms: _397  and  _400
REMARK  164  A    between atoms: _400  and  _401
REMARK  165  A    between atoms: _406  and  _408
REMARK  166  A    between atoms: _408  and  _409
REMARK  167  A    between atoms: _408  and  _411
REMARK  168  A    between atoms: _411  and  _412
REMARK  169  A    between atoms: _415  and  _417
REMARK  170  A    between atoms: _417  and  _418
REMARK  171  A    between atoms: _417  and  _420
REMARK  172  A    between atoms: _420  and  _421
REMARK  173  A    between atoms: _424  and  _426
REMARK  174  A    between atoms: _426  and  _427
REMARK  175  A    between atoms: _426  and  _429
REMARK  176  A    between atoms: _429  and  _430
REMARK  177  A    between atoms: _430  and  _431
REMARK  178  A    between atoms: _431  and  _432
REMARK  179  A    between atoms: _432  and  _433
REMARK  180  A    between atoms: _437  and  _439
REMARK  181  A    between atoms: _439  and  _440
REMARK  182  A    between atoms: _443  and  _445
REMARK  183  A    between atoms: _445  and  _446
REMARK  184  A    between atoms: _445  and  _448
REMARK  185  A    between atoms: _448  and  _449
REMARK  186  A    between atoms: _455  and  _457
REMARK  187  A    between atoms: _457  and  _458
REMARK  188  A    between atoms: _457  and  _460
REMARK  189  A    between atoms: _461  and  _462
REMARK  190  A    between atoms: _462  and  _463
REMARK  191  A    between atoms: _463  and  _464
REMARK  192  A    between atoms: _468  and  _470
REMARK  193  A    between atoms: _470  and  _471
REMARK  194  A    between atoms: _470  and  _473
REMARK  195  A    between atoms: _474  and  _475
REMARK  196  A    between atoms: _478  and  _480
REMARK  197  A    between atoms: _480  and  _481
REMARK  198  A    between atoms: _480  and  _483
REMARK  199  A    between atoms: _486  and  _488
REMARK  200  A    between atoms: _488  and  _489
REMARK  201  A    between atoms: _488  and  _491
REMARK  202  A    between atoms: _491  and  _492
REMARK  203  A    between atoms: _495  and  _497
REMARK  204  A    between atoms: _497  and  _498
REMARK  205  A    between atoms: _497  and  _500
REMARK  206  A    between atoms: _500  and  _501
REMARK  207  A    between atoms: _503  and  _505
REMARK  208  A    between atoms: _505  and  _506
REMARK  209  A    between atoms: _505  and  _508
REMARK  210  A    between atoms: _511  and  _513
REMARK  211  A    between atoms: _513  and  _514
REMARK  212  A    between atoms: _513  and  _516
REMARK  213  A    between atoms: _516  and  _517
REMARK  214  A    between atoms: _520  and  _522
REMARK  215  A    between atoms: _522  and  _523
REMARK  216  A    between atoms: _522  and  _525
REMARK  217  A    between atoms: _525  and  _526
REMARK                            x       y       z     vdW  Elec       q    Type
REMARK                         _______ _______ _______ _____ _____    ______ ____
ROOT
ATOM      1  O   HOH     1     -14.228   0.916   5.120  0.00  0.00    +0.000 OA
ENDROOT
TORSDOF 0
REMARK  Name = ../refined-set-2016/2r75/2r75_pocket.pdb
REMARK  217 active torsions:
REMARK  status: ('A' for Active; 'I' for Inactive)
REMARK    1  A    between atoms: _1  and  _3
REMARK    2  A    between atoms: _3  and  _4
REMARK    3  A    between atoms: _3  and  _6
REMARK    4  A    between atoms: _9  and  _11
REMARK    5  A    between atoms: _11  and  _12
REMARK    6  A    between atoms: _14  and  _16
REMARK    7  A    between atoms: _16  and  _17
REMARK    8  A    between atoms: _19  and  _21
REMARK    9  A    between atoms: _21  and  _22
REMARK   10  A    between atoms: _24  and  _26
REMARK   11  A    between atoms: _26  and  _27
REMARK   12  A    between atoms: _29  and  _31
REMARK   13  A    between atoms: _31  and  _32
REMARK   14  A    between atoms: _31  and  _34
REMARK   15  A    between atoms: _34  and  _35
REMARK   16  A    between atoms: _37  and  _39
REMARK   17  A    between atoms: _39  and  _40
REMARK   18  A    between atoms: _39  and  _42
REMARK   19  A    between atoms: _42  and  _43
REMARK   20  A    between atoms: _48  and  _50
REMARK   21  A    between atoms: _50  and  _51
REMARK   22  A    between atoms: _54  and  _56
REMARK   23  A    between atoms: _56  and  _57
REMARK   24  A    between atoms: _56  and  _59
REMARK   25  A    between atoms: _62  and  _64
REMARK   26  A    between atoms: _64  and  _65
REMARK   27  A    between atoms: _64  and  _67
REMARK   28  A    between atoms: _67  and  _68
REMARK   29  A    between atoms: _73  and  _75
REMARK   30  A    between atoms: _75  and  _76
REMARK   31  A    between atoms: _75  and  _78
REMARK   32  A    between atoms: _78  and  _79
REMARK   33  A    between atoms: _79  and  _80
REMARK   34  A    between atoms: _80  and  _81
REMARK   35  A    between atoms: _90  and  _92
REMARK   36  A    between atoms: _92  and  _93
REMARK   37  A    between atoms: _92  and  _95
REMARK   38  A    between atoms: _95  and  _96
REMARK   39  A    between atoms: _99  and  _101
REMARK   40  A    between atoms: _101  and  _102
REMARK   41  A    between atoms: _101  and  _104
REMARK   42  A    between atoms: _104  and  _105
REMARK   43  A    between atoms: _110  and  _112
REMARK   44  A    between atoms: _112  and  _113
REMARK   45  A    between atoms: _112  and  _115
REMARK   46  A    between atoms: _115  and  _116
REMARK   47  A    between atoms: _119  and  _121
REMARK   48  A    between atoms: _121  and  _122
REMARK   49  A    between atoms: _121  and  _124
REMARK   50  A    between atoms: _124  and  _125
REMARK   51  A    between atoms: _128  and  _130
REMARK   52  A    between atoms: _130  and  _131
REMARK   53  A    between atoms: _130  and  _133
REMARK   54  A    between atoms: _133  and  _134
REMARK   55  A    between atoms: _139  and  _141
REMARK   56  A    between atoms: _141  and  _142
REMARK   57  A    between atoms: _141  and  _144
REMARK   58  A    between atoms: _144  and  _145
REMARK   59  A    between atoms: _148  and  _150
REMARK   60  A    between atoms: _150  and  _151
REMARK   61  A    between atoms: _150  and  _153
REMARK   62  A    between atoms: _153  and  _154
REMARK   63  A    between atoms: _157  and  _159
REMARK   64  A    between atoms: _159  and  _160
REMARK   65  A    between atoms: _162  and  _164
REMARK   66  A    between atoms: _164  and  _165
REMARK   67  A    between atoms: _168  and  _170
REMARK   68  A    between atoms: _170  and  _171
REMARK   69  A    between atoms: _173  and  _175
REMARK   70  A    between atoms: _175  and  _176
REMARK   71  A    between atoms: _179  and  _181
REMARK   72  A    between atoms: _181  and  _182
REMARK   73  A    between atoms: _181  and  _184
REMARK   74  A    between atoms: _184  and  _185
REMARK   75  A    between atoms: _185  and  _186
REMARK   76  A    between atoms: _186  and  _187
REMARK   77  A    between atoms: _187  and  _188
REMARK   78  A    between atoms: _193  and  _194
REMARK   79  A    between atoms: _199  and  _201
REMARK   80  A    between atoms: _201  and  _202
REMARK   81  A    between atoms: _201  and  _204
REMARK   82  A    between atoms: _207  and  _209
REMARK   83  A    between atoms: _209  and  _210
REMARK   84  A    between atoms: _212  and  _214
REMARK   85  A    between atoms: _214  and  _215
REMARK   86  A    between atoms: _214  and  _217
REMARK   87  A    between atoms: _217  and  _218
REMARK   88  A    between atoms: _220  and  _222
REMARK   89  A    between atoms: _222  and  _223
REMARK   90  A    between atoms: _226  and  _228
REMARK   91  A    between atoms: _228  and  _229
REMARK   92  A    between atoms: _231  and  _233
REMARK   93  A    between atoms: _233  and  _234
REMARK   94  A    between atoms: _233  and  _236
REMARK   95  A    between atoms: _236  and  _237
REMARK   96  A    between atoms: _240  and  _242
REMARK   97  A    between atoms: _242  and  _243
REMARK   98  A    between atoms: _245  and  _247
REMARK   99  A    between atoms: _247  and  _248
REMARK  100  A    between atoms: _250  and  _252
REMARK  101  A    between atoms: _252  and  _253
REMARK  102  A    between atoms: _255  and  _257
REMARK  103  A    between atoms: _257  and  _258
REMARK  104  A    between atoms: _257  and  _260
REMARK  105  A    between atoms: _260  and  _261
REMARK  106  A    between atoms: _264  and  _266
REMARK  107  A    between atoms: _266  and  _267
REMARK  108  A    between atoms: _269  and  _271
REMARK  109  A    between atoms: _271  and  _272
REMARK  110  A    between atoms: _271  and  _274
REMARK  111  A    between atoms: _274  and  _275
REMARK  112  A    between atoms: _278  and  _280
REMARK  113  A    between atoms: _280  and  _281
REMARK  114  A    between atoms: _283  and  _285
REMARK  115  A    between atoms: _285  and  _286
REMARK  116  A    between atoms: _289  and  _291
REMARK  117  A    between atoms: _291  and  _292
REMARK  118  A    between atoms: _295  and  _297
REMARK  119  A    between atoms: _297  and  _298
REMARK  120  A    between atoms: _297  and  _300
REMARK  121  A    between atoms: _300  and  _301
REMARK  122  A    between atoms: _304  and  _306
REMARK  123  A    between atoms: _306  and  _307
REMARK  124  A    between atoms: _306  and  _309
REMARK  125  A    between atoms: _309  and  _310
REMARK  126  A    between atoms: _314  and  _315
REMARK  127  A    between atoms: _320  and  _322
REMARK  128  A    between atoms: _322  and  _323
REMARK  129  A    between atoms: _322  and  _325
REMARK  130  A    between atoms: _325  and  _326
REMARK  131  A    between atoms: _332  and  _334
REMARK  132  A    between atoms: _334  and  _335
REMARK  133  A    between atoms: _334  and  _337
REMARK  134  A    between atoms: _337  and  _338
REMARK  135  A    between atoms: _344  and  _346
REMARK  136  A    between atoms: _346  and  _347
REMARK  137  A    between atoms: _346  and  _349
REMARK  138  A    between atoms: _349  and  _350
REMARK  139  A    between atoms: _350  and  _351
REMARK  140  A    between atoms: _354  and  _356
REMARK  141  A    between atoms: _356  and  _357
REMARK  142  A    between atoms: _356  and  _359
REMARK  143  A    between atoms: _359  and  _360
REMARK  144  A    between atoms: _360  and  _361
REMARK  145  A    between atoms: _361  and  _362
REMARK  146  A    between atoms: _362  and  _363
REMARK  147  A    between atoms: _367  and  _369
REMARK  148  A    between atoms: _369  and  _370
REMARK  149  A    between atoms: _369  and  _372
REMARK  150  A    between atoms: _372  and  _373
REMARK  151  A    between atoms: _373  and  _374
REMARK  152  A    between atoms: _376  and  _378
REMARK  153  A    between atoms: _378  and  _379
REMARK  154  A    between atoms: _378  and  _381
REMARK  155  A    between atoms: _381  and  _382
REMARK  156  A    between atoms: _382  and  _383
REMARK  157  A    between atoms: _383  and  _384
REMARK  158  A    between atoms: _384  and  _385
REMARK  159  A    between atoms: _389  and  _391
REMARK  160  A    between atoms: _391  and  _392
REMARK  161  A    between atoms: _395  and  _397
REMARK  162  A    between atoms: _397  and  _398
REMARK  163  A    between atoms: _397  and  _400
REMARK  164  A    between atoms: _400  and  _401
REMARK  165  A    between atoms: _406  and  _408
REMARK  166  A    between atoms: _408  and  _409
REMARK  167  A    between atoms: _408  and  _411
REMARK  168  A    between atoms: _411  and  _412
REMARK  169  A    between atoms: _415  and  _417
REMARK  170  A    between atoms: _417  and  _418
REMARK  171  A    between atoms: _417  and  _420
REMARK  172  A    between atoms: _420  and  _421
REMARK  173  A    between atoms: _424  and  _426
REMARK  174  A    between atoms: _426  and  _427
REMARK  175  A    between atoms: _426  and  _429
REMARK  176  A    between atoms: _429  and  _430
REMARK  177  A    between atoms: _430  and  _431
REMARK  178  A    between atoms: _431  and  _432
REMARK  179  A    between atoms: _432  and  _433
REMARK  180  A    between atoms: _437  and  _439
REMARK  181  A    between atoms: _439  and  _440
REMARK  182  A    between atoms: _443  and  _445
REMARK  183  A    between atoms: _445  and  _446
REMARK  184  A    between atoms: _445  and  _448
REMARK  185  A    between atoms: _448  and  _449
REMARK  186  A    between atoms: _455  and  _457
REMARK  187  A    between atoms: _457  and  _458
REMARK  188  A    between atoms: _457  and  _460
REMARK  189  A    between atoms: _461  and  _462
REMARK  190  A    between atoms: _462  and  _463
REMARK  191  A    between atoms: _463  and  _464
REMARK  192  A    between atoms: _468  and  _470
REMARK  193  A    between atoms: _470  and  _471
REMARK  194  A    between atoms: _470  and  _473
REMARK  195  A    between atoms: _474  and  _475
REMARK  196  A    between atoms: _478  and  _480
REMARK  197  A    between atoms: _480  and  _481
REMARK  198  A    between atoms: _480  and  _483
REMARK  199  A    between atoms: _486  and  _488
REMARK  200  A    between atoms: _488  and  _489
REMARK  201  A    between atoms: _488  and  _491
REMARK  202  A    between atoms: _491  and  _492
REMARK  203  A    between atoms: _495  and  _497
REMARK  204  A    between atoms: _497  and  _498
REMARK  205  A    between atoms: _497  and  _500
REMARK  206  A    between atoms: _500  and  _501
REMARK  207  A    between atoms: _503  and  _505
REMARK  208  A    between atoms: _505  and  _506
REMARK  209  A    between atoms: _505  and  _508
REMARK  210  A    between atoms: _511  and  _513
REMARK  211  A    between atoms: _513  and  _514
REMARK  212  A    between atoms: _513  and  _516
REMARK  213  A    between atoms: _516  and  _517
REMARK  214  A    between atoms: _520  and  _522
REMARK  215  A    between atoms: _522  and  _523
REMARK  216  A    between atoms: _522  and  _525
REMARK  217  A    between atoms: _525  and  _526
REMARK                            x       y       z     vdW  Elec       q    Type
REMARK                         _______ _______ _______ _____ _____    ______ ____
ROOT
ATOM      1  O   HOH     1      -0.427   4.127  18.350  0.00  0.00    +0.000 OA
ENDROOT
TORSDOF 0
REMARK  Name = ../refined-set-2016/2r75/2r75_pocket.pdb
REMARK  217 active torsions:
REMARK  status: ('A' for Active; 'I' for Inactive)
REMARK    1  A    between atoms: _1  and  _3
REMARK    2  A    between atoms: _3  and  _4
REMARK    3  A    between atoms: _3  and  _6
REMARK    4  A    between atoms: _9  and  _11
REMARK    5  A    between atoms: _11  and  _12
REMARK    6  A    between atoms: _14  and  _16
REMARK    7  A    between atoms: _16  and  _17
REMARK    8  A    between atoms: _19  and  _21
REMARK    9  A    between atoms: _21  and  _22
REMARK   10  A    between atoms: _24  and  _26
REMARK   11  A    between atoms: _26  and  _27
REMARK   12  A    between atoms: _29  and  _31
REMARK   13  A    between atoms: _31  and  _32
REMARK   14  A    between atoms: _31  and  _34
REMARK   15  A    between atoms: _34  and  _35
REMARK   16  A    between atoms: _37  and  _39
REMARK   17  A    between atoms: _39  and  _40
REMARK   18  A    between atoms: _39  and  _42
REMARK   19  A    between atoms: _42  and  _43
REMARK   20  A    between atoms: _48  and  _50
REMARK   21  A    between atoms: _50  and  _51
REMARK   22  A    between atoms: _54  and  _56
REMARK   23  A    between atoms: _56  and  _57
REMARK   24  A    between atoms: _56  and  _59
REMARK   25  A    between atoms: _62  and  _64
REMARK   26  A    between atoms: _64  and  _65
REMARK   27  A    between atoms: _64  and  _67
REMARK   28  A    between atoms: _67  and  _68
REMARK   29  A    between atoms: _73  and  _75
REMARK   30  A    between atoms: _75  and  _76
REMARK   31  A    between atoms: _75  and  _78
REMARK   32  A    between atoms: _78  and  _79
REMARK   33  A    between atoms: _79  and  _80
REMARK   34  A    between atoms: _80  and  _81
REMARK   35  A    between atoms: _90  and  _92
REMARK   36  A    between atoms: _92  and  _93
REMARK   37  A    between atoms: _92  and  _95
REMARK   38  A    between atoms: _95  and  _96
REMARK   39  A    between atoms: _99  and  _101
REMARK   40  A    between atoms: _101  and  _102
REMARK   41  A    between atoms: _101  and  _104
REMARK   42  A    between atoms: _104  and  _105
REMARK   43  A    between atoms: _110  and  _112
REMARK   44  A    between atoms: _112  and  _113
REMARK   45  A    between atoms: _112  and  _115
REMARK   46  A    between atoms: _115  and  _116
REMARK   47  A    between atoms: _119  and  _121
REMARK   48  A    between atoms: _121  and  _122
REMARK   49  A    between atoms: _121  and  _124
REMARK   50  A    between atoms: _124  and  _125
REMARK   51  A    between atoms: _128  and  _130
REMARK   52  A    between atoms: _130  and  _131
REMARK   53  A    between atoms: _130  and  _133
REMARK   54  A    between atoms: _133  and  _134
REMARK   55  A    between atoms: _139  and  _141
REMARK   56  A    between atoms: _141  and  _142
REMARK   57  A    between atoms: _141  and  _144
REMARK   58  A    between atoms: _144  and  _145
REMARK   59  A    between atoms: _148  and  _150
REMARK   60  A    between atoms: _150  and  _151
REMARK   61  A    between atoms: _150  and  _153
REMARK   62  A    between atoms: _153  and  _154
REMARK   63  A    between atoms: _157  and  _159
REMARK   64  A    between atoms: _159  and  _160
REMARK   65  A    between atoms: _162  and  _164
REMARK   66  A    between atoms: _164  and  _165
REMARK   67  A    between atoms: _168  and  _170
REMARK   68  A    between atoms: _170  and  _171
REMARK   69  A    between atoms: _173  and  _175
REMARK   70  A    between atoms: _175  and  _176
REMARK   71  A    between atoms: _179  and  _181
REMARK   72  A    between atoms: _181  and  _182
REMARK   73  A    between atoms: _181  and  _184
REMARK   74  A    between atoms: _184  and  _185
REMARK   75  A    between atoms: _185  and  _186
REMARK   76  A    between atoms: _186  and  _187
REMARK   77  A    between atoms: _187  and  _188
REMARK   78  A    between atoms: _193  and  _194
REMARK   79  A    between atoms: _199  and  _201
REMARK   80  A    between atoms: _201  and  _202
REMARK   81  A    between atoms: _201  and  _204
REMARK   82  A    between atoms: _207  and  _209
REMARK   83  A    between atoms: _209  and  _210
REMARK   84  A    between atoms: _212  and  _214
REMARK   85  A    between atoms: _214  and  _215
REMARK   86  A    between atoms: _214  and  _217
REMARK   87  A    between atoms: _217  and  _218
REMARK   88  A    between atoms: _220  and  _222
REMARK   89  A    between atoms: _222  and  _223
REMARK   90  A    between atoms: _226  and  _228
REMARK   91  A    between atoms: _228  and  _229
REMARK   92  A    between atoms: _231  and  _233
REMARK   93  A    between atoms: _233  and  _234
REMARK   94  A    between atoms: _233  and  _236
REMARK   95  A    between atoms: _236  and  _237
REMARK   96  A    between atoms: _240  and  _242
REMARK   97  A    between atoms: _242  and  _243
REMARK   98  A    between atoms: _245  and  _247
REMARK   99  A    between atoms: _247  and  _248
REMARK  100  A    between atoms: _250  and  _252
REMARK  101  A    between atoms: _252  and  _253
REMARK  102  A    between atoms: _255  and  _257
REMARK  103  A    between atoms: _257  and  _258
REMARK  104  A    between atoms: _257  and  _260
REMARK  105  A    between atoms: _260  and  _261
REMARK  106  A    between atoms: _264  and  _266
REMARK  107  A    between atoms: _266  and  _267
REMARK  108  A    between atoms: _269  and  _271
REMARK  109  A    between atoms: _271  and  _272
REMARK  110  A    between atoms: _271  and  _274
REMARK  111  A    between atoms: _274  and  _275
REMARK  112  A    between atoms: _278  and  _280
REMARK  113  A    between atoms: _280  and  _281
REMARK  114  A    between atoms: _283  and  _285
REMARK  115  A    between atoms: _285  and  _286
REMARK  116  A    between atoms: _289  and  _291
REMARK  117  A    between atoms: _291  and  _292
REMARK  118  A    between atoms: _295  and  _297
REMARK  119  A    between atoms: _297  and  _298
REMARK  120  A    between atoms: _297  and  _300
REMARK  121  A    between atoms: _300  and  _301
REMARK  122  A    between atoms: _304  and  _306
REMARK  123  A    between atoms: _306  and  _307
REMARK  124  A    between atoms: _306  and  _309
REMARK  125  A    between atoms: _309  and  _310
REMARK  126  A    between atoms: _314  and  _315
REMARK  127  A    between atoms: _320  and  _322
REMARK  128  A    between atoms: _322  and  _323
REMARK  129  A    between atoms: _322  and  _325
REMARK  130  A    between atoms: _325  and  _326
REMARK  131  A    between atoms: _332  and  _334
REMARK  132  A    between atoms: _334  and  _335
REMARK  133  A    between atoms: _334  and  _337
REMARK  134  A    between atoms: _337  and  _338
REMARK  135  A    between atoms: _344  and  _346
REMARK  136  A    between atoms: _346  and  _347
REMARK  137  A    between atoms: _346  and  _349
REMARK  138  A    between atoms: _349  and  _350
REMARK  139  A    between atoms: _350  and  _351
REMARK  140  A    between atoms: _354  and  _356
REMARK  141  A    between atoms: _356  and  _357
REMARK  142  A    between atoms: _356  and  _359
REMARK  143  A    between atoms: _359  and  _360
REMARK  144  A    between atoms: _360  and  _361
REMARK  145  A    between atoms: _361  and  _362
REMARK  146  A    between atoms: _362  and  _363
REMARK  147  A    between atoms: _367  and  _369
REMARK  148  A    between atoms: _369  and  _370
REMARK  149  A    between atoms: _369  and  _372
REMARK  150  A    between atoms: _372  and  _373
REMARK  151  A    between atoms: _373  and  _374
REMARK  152  A    between atoms: _376  and  _378
REMARK  153  A    between atoms: _378  and  _379
REMARK  154  A    between atoms: _378  and  _381
REMARK  155  A    between atoms: _381  and  _382
REMARK  156  A    between atoms: _382  and  _383
REMARK  157  A    between atoms: _383  and  _384
REMARK  158  A    between atoms: _384  and  _385
REMARK  159  A    between atoms: _389  and  _391
REMARK  160  A    between atoms: _391  and  _392
REMARK  161  A    between atoms: _395  and  _397
REMARK  162  A    between atoms: _397  and  _398
REMARK  163  A    between atoms: _397  and  _400
REMARK  164  A    between atoms: _400  and  _401
REMARK  165  A    between atoms: _406  and  _408
REMARK  166  A    between atoms: _408  and  _409
REMARK  167  A    between atoms: _408  and  _411
REMARK  168  A    between atoms: _411  and  _412
REMARK  169  A    between atoms: _415  and  _417
REMARK  170  A    between atoms: _417  and  _418
REMARK  171  A    between atoms: _417  and  _420
REMARK  172  A    between atoms: _420  and  _421
REMARK  173  A    between atoms: _424  and  _426
REMARK  174  A    between atoms: _426  and  _427
REMARK  175  A    between atoms: _426  and  _429
REMARK  176  A    between atoms: _429  and  _430
REMARK  177  A    between atoms: _430  and  _431
REMARK  178  A    between atoms: _431  and  _432
REMARK  179  A    between atoms: _432  and  _433
REMARK  180  A    between atoms: _437  and  _439
REMARK  181  A    between atoms: _439  and  _440
REMARK  182  A    between atoms: _443  and  _445
REMARK  183  A    between atoms: _445  and  _446
REMARK  184  A    between atoms: _445  and  _448
REMARK  185  A    between atoms: _448  and  _449
REMARK  186  A    between atoms: _455  and  _457
REMARK  187  A    between atoms: _457  and  _458
REMARK  188  A    between atoms: _457  and  _460
REMARK  189  A    between atoms: _461  and  _462
REMARK  190  A    between atoms: _462  and  _463
REMARK  191  A    between atoms: _463  and  _464
REMARK  192  A    between atoms: _468  and  _470
REMARK  193  A    between atoms: _470  and  _471
REMARK  194  A    between atoms: _470  and  _473
REMARK  195  A    between atoms: _474  and  _475
REMARK  196  A    between atoms: _478  and  _480
REMARK  197  A    between atoms: _480  and  _481
REMARK  198  A    between atoms: _480  and  _483
REMARK  199  A    between atoms: _486  and  _488
REMARK  200  A    between atoms: _488  and  _489
REMARK  201  A    between atoms: _488  and  _491
REMARK  202  A    between atoms: _491  and  _492
REMARK  203  A    between atoms: _495  and  _497
REMARK  204  A    between atoms: _497  and  _498
REMARK  205  A    between atoms: _497  and  _500
REMARK  206  A    between atoms: _500  and  _501
REMARK  207  A    between atoms: _503  and  _505
REMARK  208  A    between atoms: _505  and  _506
REMARK  209  A    between atoms: _505  and  _508
REMARK  210  A    between atoms: _511  and  _513
REMARK  211  A    between atoms: _513  and  _514
REMARK  212  A    between atoms: _513  and  _516
REMARK  213  A    between atoms: _516  and  _517
REMARK  214  A    between atoms: _520  and  _522
REMARK  215  A    between atoms: _522  and  _523
REMARK  216  A    between atoms: _522  and  _525
REMARK  217  A    between atoms: _525  and  _526
REMARK                            x       y       z     vdW  Elec       q    Type
REMARK                         _______ _______ _______ _____ _____    ______ ____
ROOT
ATOM      1  O   HOH     1       0.667   4.884  20.680  0.00  0.00    +0.000 OA
ENDROOT
TORSDOF 0
REMARK  Name = ../refined-set-2016/2r75/2r75_pocket.pdb
REMARK  217 active torsions:
REMARK  status: ('A' for Active; 'I' for Inactive)
REMARK    1  A    between atoms: _1  and  _3
REMARK    2  A    between atoms: _3  and  _4
REMARK    3  A    between atoms: _3  and  _6
REMARK    4  A    between atoms: _9  and  _11
REMARK    5  A    between atoms: _11  and  _12
REMARK    6  A    between atoms: _14  and  _16
REMARK    7  A    between atoms: _16  and  _17
REMARK    8  A    between atoms: _19  and  _21
REMARK    9  A    between atoms: _21  and  _22
REMARK   10  A    between atoms: _24  and  _26
REMARK   11  A    between atoms: _26  and  _27
REMARK   12  A    between atoms: _29  and  _31
REMARK   13  A    between atoms: _31  and  _32
REMARK   14  A    between atoms: _31  and  _34
REMARK   15  A    between atoms: _34  and  _35
REMARK   16  A    between atoms: _37  and  _39
REMARK   17  A    between atoms: _39  and  _40
REMARK   18  A    between atoms: _39  and  _42
REMARK   19  A    between atoms: _42  and  _43
REMARK   20  A    between atoms: _48  and  _50
REMARK   21  A    between atoms: _50  and  _51
REMARK   22  A    between atoms: _54  and  _56
REMARK   23  A    between atoms: _56  and  _57
REMARK   24  A    between atoms: _56  and  _59
REMARK   25  A    between atoms: _62  and  _64
REMARK   26  A    between atoms: _64  and  _65
REMARK   27  A    between atoms: _64  and  _67
REMARK   28  A    between atoms: _67  and  _68
REMARK   29  A    between atoms: _73  and  _75
REMARK   30  A    between atoms: _75  and  _76
REMARK   31  A    between atoms: _75  and  _78
REMARK   32  A    between atoms: _78  and  _79
REMARK   33  A    between atoms: _79  and  _80
REMARK   34  A    between atoms: _80  and  _81
REMARK   35  A    between atoms: _90  and  _92
REMARK   36  A    between atoms: _92  and  _93
REMARK   37  A    between atoms: _92  and  _95
REMARK   38  A    between atoms: _95  and  _96
REMARK   39  A    between atoms: _99  and  _101
REMARK   40  A    between atoms: _101  and  _102
REMARK   41  A    between atoms: _101  and  _104
REMARK   42  A    between atoms: _104  and  _105
REMARK   43  A    between atoms: _110  and  _112
REMARK   44  A    between atoms: _112  and  _113
REMARK   45  A    between atoms: _112  and  _115
REMARK   46  A    between atoms: _115  and  _116
REMARK   47  A    between atoms: _119  and  _121
REMARK   48  A    between atoms: _121  and  _122
REMARK   49  A    between atoms: _121  and  _124
REMARK   50  A    between atoms: _124  and  _125
REMARK   51  A    between atoms: _128  and  _130
REMARK   52  A    between atoms: _130  and  _131
REMARK   53  A    between atoms: _130  and  _133
REMARK   54  A    between atoms: _133  and  _134
REMARK   55  A    between atoms: _139  and  _141
REMARK   56  A    between atoms: _141  and  _142
REMARK   57  A    between atoms: _141  and  _144
REMARK   58  A    between atoms: _144  and  _145
REMARK   59  A    between atoms: _148  and  _150
REMARK   60  A    between atoms: _150  and  _151
REMARK   61  A    between atoms: _150  and  _153
REMARK   62  A    between atoms: _153  and  _154
REMARK   63  A    between atoms: _157  and  _159
REMARK   64  A    between atoms: _159  and  _160
REMARK   65  A    between atoms: _162  and  _164
REMARK   66  A    between atoms: _164  and  _165
REMARK   67  A    between atoms: _168  and  _170
REMARK   68  A    between atoms: _170  and  _171
REMARK   69  A    between atoms: _173  and  _175
REMARK   70  A    between atoms: _175  and  _176
REMARK   71  A    between atoms: _179  and  _181
REMARK   72  A    between atoms: _181  and  _182
REMARK   73  A    between atoms: _181  and  _184
REMARK   74  A    between atoms: _184  and  _185
REMARK   75  A    between atoms: _185  and  _186
REMARK   76  A    between atoms: _186  and  _187
REMARK   77  A    between atoms: _187  and  _188
REMARK   78  A    between atoms: _193  and  _194
REMARK   79  A    between atoms: _199  and  _201
REMARK   80  A    between atoms: _201  and  _202
REMARK   81  A    between atoms: _201  and  _204
REMARK   82  A    between atoms: _207  and  _209
REMARK   83  A    between atoms: _209  and  _210
REMARK   84  A    between atoms: _212  and  _214
REMARK   85  A    between atoms: _214  and  _215
REMARK   86  A    between atoms: _214  and  _217
REMARK   87  A    between atoms: _217  and  _218
REMARK   88  A    between atoms: _220  and  _222
REMARK   89  A    between atoms: _222  and  _223
REMARK   90  A    between atoms: _226  and  _228
REMARK   91  A    between atoms: _228  and  _229
REMARK   92  A    between atoms: _231  and  _233
REMARK   93  A    between atoms: _233  and  _234
REMARK   94  A    between atoms: _233  and  _236
REMARK   95  A    between atoms: _236  and  _237
REMARK   96  A    between atoms: _240  and  _242
REMARK   97  A    between atoms: _242  and  _243
REMARK   98  A    between atoms: _245  and  _247
REMARK   99  A    between atoms: _247  and  _248
REMARK  100  A    between atoms: _250  and  _252
REMARK  101  A    between atoms: _252  and  _253
REMARK  102  A    between atoms: _255  and  _257
REMARK  103  A    between atoms: _257  and  _258
REMARK  104  A    between atoms: _257  and  _260
REMARK  105  A    between atoms: _260  and  _261
REMARK  106  A    between atoms: _264  and  _266
REMARK  107  A    between atoms: _266  and  _267
REMARK  108  A    between atoms: _269  and  _271
REMARK  109  A    between atoms: _271  and  _272
REMARK  110  A    between atoms: _271  and  _274
REMARK  111  A    between atoms: _274  and  _275
REMARK  112  A    between atoms: _278  and  _280
REMARK  113  A    between atoms: _280  and  _281
REMARK  114  A    between atoms: _283  and  _285
REMARK  115  A    between atoms: _285  and  _286
REMARK  116  A    between atoms: _289  and  _291
REMARK  117  A    between atoms: _291  and  _292
REMARK  118  A    between atoms: _295  and  _297
REMARK  119  A    between atoms: _297  and  _298
REMARK  120  A    between atoms: _297  and  _300
REMARK  121  A    between atoms: _300  and  _301
REMARK  122  A    between atoms: _304  and  _306
REMARK  123  A    between atoms: _306  and  _307
REMARK  124  A    between atoms: _306  and  _309
REMARK  125  A    between atoms: _309  and  _310
REMARK  126  A    between atoms: _314  and  _315
REMARK  127  A    between atoms: _320  and  _322
REMARK  128  A    between atoms: _322  and  _323
REMARK  129  A    between atoms: _322  and  _325
REMARK  130  A    between atoms: _325  and  _326
REMARK  131  A    between atoms: _332  and  _334
REMARK  132  A    between atoms: _334  and  _335
REMARK  133  A    between atoms: _334  and  _337
REMARK  134  A    between atoms: _337  and  _338
REMARK  135  A    between atoms: _344  and  _346
REMARK  136  A    between atoms: _346  and  _347
REMARK  137  A    between atoms: _346  and  _349
REMARK  138  A    between atoms: _349  and  _350
REMARK  139  A    between atoms: _350  and  _351
REMARK  140  A    between atoms: _354  and  _356
REMARK  141  A    between atoms: _356  and  _357
REMARK  142  A    between atoms: _356  and  _359
REMARK  143  A    between atoms: _359  and  _360
REMARK  144  A    between atoms: _360  and  _361
REMARK  145  A    between atoms: _361  and  _362
REMARK  146  A    between atoms: _362  and  _363
REMARK  147  A    between atoms: _367  and  _369
REMARK  148  A    between atoms: _369  and  _370
REMARK  149  A    between atoms: _369  and  _372
REMARK  150  A    between atoms: _372  and  _373
REMARK  151  A    between atoms: _373  and  _374
REMARK  152  A    between atoms: _376  and  _378
REMARK  153  A    between atoms: _378  and  _379
REMARK  154  A    between atoms: _378  and  _381
REMARK  155  A    between atoms: _381  and  _382
REMARK  156  A    between atoms: _382  and  _383
REMARK  157  A    between atoms: _383  and  _384
REMARK  158  A    between atoms: _384  and  _385
REMARK  159  A    between atoms: _389  and  _391
REMARK  160  A    between atoms: _391  and  _392
REMARK  161  A    between atoms: _395  and  _397
REMARK  162  A    between atoms: _397  and  _398
REMARK  163  A    between atoms: _397  and  _400
REMARK  164  A    between atoms: _400  and  _401
REMARK  165  A    between atoms: _406  and  _408
REMARK  166  A    between atoms: _408  and  _409
REMARK  167  A    between atoms: _408  and  _411
REMARK  168  A    between atoms: _411  and  _412
REMARK  169  A    between atoms: _415  and  _417
REMARK  170  A    between atoms: _417  and  _418
REMARK  171  A    between atoms: _417  and  _420
REMARK  172  A    between atoms: _420  and  _421
REMARK  173  A    between atoms: _424  and  _426
REMARK  174  A    between atoms: _426  and  _427
REMARK  175  A    between atoms: _426  and  _429
REMARK  176  A    between atoms: _429  and  _430
REMARK  177  A    between atoms: _430  and  _431
REMARK  178  A    between atoms: _431  and  _432
REMARK  179  A    between atoms: _432  and  _433
REMARK  180  A    between atoms: _437  and  _439
REMARK  181  A    between atoms: _439  and  _440
REMARK  182  A    between atoms: _443  and  _445
REMARK  183  A    between atoms: _445  and  _446
REMARK  184  A    between atoms: _445  and  _448
REMARK  185  A    between atoms: _448  and  _449
REMARK  186  A    between atoms: _455  and  _457
REMARK  187  A    between atoms: _457  and  _458
REMARK  188  A    between atoms: _457  and  _460
REMARK  189  A    between atoms: _461  and  _462
REMARK  190  A    between atoms: _462  and  _463
REMARK  191  A    between atoms: _463  and  _464
REMARK  192  A    between atoms: _468  and  _470
REMARK  193  A    between atoms: _470  and  _471
REMARK  194  A    between atoms: _470  and  _473
REMARK  195  A    between atoms: _474  and  _475
REMARK  196  A    between atoms: _478  and  _480
REMARK  197  A    between atoms: _480  and  _481
REMARK  198  A    between atoms: _480  and  _483
REMARK  199  A    between atoms: _486  and  _488
REMARK  200  A    between atoms: _488  and  _489
REMARK  201  A    between atoms: _488  and  _491
REMARK  202  A    between atoms: _491  and  _492
REMARK  203  A    between atoms: _495  and  _497
REMARK  204  A    between atoms: _497  and  _498
REMARK  205  A    between atoms: _497  and  _500
REMARK  206  A    between atoms: _500  and  _501
REMARK  207  A    between atoms: _503  and  _505
REMARK  208  A    between atoms: _505  and  _506
REMARK  209  A    between atoms: _505  and  _508
REMARK  210  A    between atoms: _511  and  _513
REMARK  211  A    between atoms: _513  and  _514
REMARK  212  A    between atoms: _513  and  _516
REMARK  213  A    between atoms: _516  and  _517
REMARK  214  A    between atoms: _520  and  _522
REMARK  215  A    between atoms: _522  and  _523
REMARK  216  A    between atoms: _522  and  _525
REMARK  217  A    between atoms: _525  and  _526
REMARK                            x       y       z     vdW  Elec       q    Type
REMARK                         _______ _______ _______ _____ _____    ______ ____
ROOT
ATOM      1  O   HOH     1     -14.487  -9.259   8.822  0.00  0.00    +0.000 OA
ENDROOT
TORSDOF 0
REMARK  Name = ../refined-set-2016/2r75/2r75_pocket.pdb
REMARK  217 active torsions:
REMARK  status: ('A' for Active; 'I' for Inactive)
REMARK    1  A    between atoms: _1  and  _3
REMARK    2  A    between atoms: _3  and  _4
REMARK    3  A    between atoms: _3  and  _6
REMARK    4  A    between atoms: _9  and  _11
REMARK    5  A    between atoms: _11  and  _12
REMARK    6  A    between atoms: _14  and  _16
REMARK    7  A    between atoms: _16  and  _17
REMARK    8  A    between atoms: _19  and  _21
REMARK    9  A    between atoms: _21  and  _22
REMARK   10  A    between atoms: _24  and  _26
REMARK   11  A    between atoms: _26  and  _27
REMARK   12  A    between atoms: _29  and  _31
REMARK   13  A    between atoms: _31  and  _32
REMARK   14  A    between atoms: _31  and  _34
REMARK   15  A    between atoms: _34  and  _35
REMARK   16  A    between atoms: _37  and  _39
REMARK   17  A    between atoms: _39  and  _40
REMARK   18  A    between atoms: _39  and  _42
REMARK   19  A    between atoms: _42  and  _43
REMARK   20  A    between atoms: _48  and  _50
REMARK   21  A    between atoms: _50  and  _51
REMARK   22  A    between atoms: _54  and  _56
REMARK   23  A    between atoms: _56  and  _57
REMARK   24  A    between atoms: _56  and  _59
REMARK   25  A    between atoms: _62  and  _64
REMARK   26  A    between atoms: _64  and  _65
REMARK   27  A    between atoms: _64  and  _67
REMARK   28  A    between atoms: _67  and  _68
REMARK   29  A    between atoms: _73  and  _75
REMARK   30  A    between atoms: _75  and  _76
REMARK   31  A    between atoms: _75  and  _78
REMARK   32  A    between atoms: _78  and  _79
REMARK   33  A    between atoms: _79  and  _80
REMARK   34  A    between atoms: _80  and  _81
REMARK   35  A    between atoms: _90  and  _92
REMARK   36  A    between atoms: _92  and  _93
REMARK   37  A    between atoms: _92  and  _95
REMARK   38  A    between atoms: _95  and  _96
REMARK   39  A    between atoms: _99  and  _101
REMARK   40  A    between atoms: _101  and  _102
REMARK   41  A    between atoms: _101  and  _104
REMARK   42  A    between atoms: _104  and  _105
REMARK   43  A    between atoms: _110  and  _112
REMARK   44  A    between atoms: _112  and  _113
REMARK   45  A    between atoms: _112  and  _115
REMARK   46  A    between atoms: _115  and  _116
REMARK   47  A    between atoms: _119  and  _121
REMARK   48  A    between atoms: _121  and  _122
REMARK   49  A    between atoms: _121  and  _124
REMARK   50  A    between atoms: _124  and  _125
REMARK   51  A    between atoms: _128  and  _130
REMARK   52  A    between atoms: _130  and  _131
REMARK   53  A    between atoms: _130  and  _133
REMARK   54  A    between atoms: _133  and  _134
REMARK   55  A    between atoms: _139  and  _141
REMARK   56  A    between atoms: _141  and  _142
REMARK   57  A    between atoms: _141  and  _144
REMARK   58  A    between atoms: _144  and  _145
REMARK   59  A    between atoms: _148  and  _150
REMARK   60  A    between atoms: _150  and  _151
REMARK   61  A    between atoms: _150  and  _153
REMARK   62  A    between atoms: _153  and  _154
REMARK   63  A    between atoms: _157  and  _159
REMARK   64  A    between atoms: _159  and  _160
REMARK   65  A    between atoms: _162  and  _164
REMARK   66  A    between atoms: _164  and  _165
REMARK   67  A    between atoms: _168  and  _170
REMARK   68  A    between atoms: _170  and  _171
REMARK   69  A    between atoms: _173  and  _175
REMARK   70  A    between atoms: _175  and  _176
REMARK   71  A    between atoms: _179  and  _181
REMARK   72  A    between atoms: _181  and  _182
REMARK   73  A    between atoms: _181  and  _184
REMARK   74  A    between atoms: _184  and  _185
REMARK   75  A    between atoms: _185  and  _186
REMARK   76  A    between atoms: _186  and  _187
REMARK   77  A    between atoms: _187  and  _188
REMARK   78  A    between atoms: _193  and  _194
REMARK   79  A    between atoms: _199  and  _201
REMARK   80  A    between atoms: _201  and  _202
REMARK   81  A    between atoms: _201  and  _204
REMARK   82  A    between atoms: _207  and  _209
REMARK   83  A    between atoms: _209  and  _210
REMARK   84  A    between atoms: _212  and  _214
REMARK   85  A    between atoms: _214  and  _215
REMARK   86  A    between atoms: _214  and  _217
REMARK   87  A    between atoms: _217  and  _218
REMARK   88  A    between atoms: _220  and  _222
REMARK   89  A    between atoms: _222  and  _223
REMARK   90  A    between atoms: _226  and  _228
REMARK   91  A    between atoms: _228  and  _229
REMARK   92  A    between atoms: _231  and  _233
REMARK   93  A    between atoms: _233  and  _234
REMARK   94  A    between atoms: _233  and  _236
REMARK   95  A    between atoms: _236  and  _237
REMARK   96  A    between atoms: _240  and  _242
REMARK   97  A    between atoms: _242  and  _243
REMARK   98  A    between atoms: _245  and  _247
REMARK   99  A    between atoms: _247  and  _248
REMARK  100  A    between atoms: _250  and  _252
REMARK  101  A    between atoms: _252  and  _253
REMARK  102  A    between atoms: _255  and  _257
REMARK  103  A    between atoms: _257  and  _258
REMARK  104  A    between atoms: _257  and  _260
REMARK  105  A    between atoms: _260  and  _261
REMARK  106  A    between atoms: _264  and  _266
REMARK  107  A    between atoms: _266  and  _267
REMARK  108  A    between atoms: _269  and  _271
REMARK  109  A    between atoms: _271  and  _272
REMARK  110  A    between atoms: _271  and  _274
REMARK  111  A    between atoms: _274  and  _275
REMARK  112  A    between atoms: _278  and  _280
REMARK  113  A    between atoms: _280  and  _281
REMARK  114  A    between atoms: _283  and  _285
REMARK  115  A    between atoms: _285  and  _286
REMARK  116  A    between atoms: _289  and  _291
REMARK  117  A    between atoms: _291  and  _292
REMARK  118  A    between atoms: _295  and  _297
REMARK  119  A    between atoms: _297  and  _298
REMARK  120  A    between atoms: _297  and  _300
REMARK  121  A    between atoms: _300  and  _301
REMARK  122  A    between atoms: _304  and  _306
REMARK  123  A    between atoms: _306  and  _307
REMARK  124  A    between atoms: _306  and  _309
REMARK  125  A    between atoms: _309  and  _310
REMARK  126  A    between atoms: _314  and  _315
REMARK  127  A    between atoms: _320  and  _322
REMARK  128  A    between atoms: _322  and  _323
REMARK  129  A    between atoms: _322  and  _325
REMARK  130  A    between atoms: _325  and  _326
REMARK  131  A    between atoms: _332  and  _334
REMARK  132  A    between atoms: _334  and  _335
REMARK  133  A    between atoms: _334  and  _337
REMARK  134  A    between atoms: _337  and  _338
REMARK  135  A    between atoms: _344  and  _346
REMARK  136  A    between atoms: _346  and  _347
REMARK  137  A    between atoms: _346  and  _349
REMARK  138  A    between atoms: _349  and  _350
REMARK  139  A    between atoms: _350  and  _351
REMARK  140  A    between atoms: _354  and  _356
REMARK  141  A    between atoms: _356  and  _357
REMARK  142  A    between atoms: _356  and  _359
REMARK  143  A    between atoms: _359  and  _360
REMARK  144  A    between atoms: _360  and  _361
REMARK  145  A    between atoms: _361  and  _362
REMARK  146  A    between atoms: _362  and  _363
REMARK  147  A    between atoms: _367  and  _369
REMARK  148  A    between atoms: _369  and  _370
REMARK  149  A    between atoms: _369  and  _372
REMARK  150  A    between atoms: _372  and  _373
REMARK  151  A    between atoms: _373  and  _374
REMARK  152  A    between atoms: _376  and  _378
REMARK  153  A    between atoms: _378  and  _379
REMARK  154  A    between atoms: _378  and  _381
REMARK  155  A    between atoms: _381  and  _382
REMARK  156  A    between atoms: _382  and  _383
REMARK  157  A    between atoms: _383  and  _384
REMARK  158  A    between atoms: _384  and  _385
REMARK  159  A    between atoms: _389  and  _391
REMARK  160  A    between atoms: _391  and  _392
REMARK  161  A    between atoms: _395  and  _397
REMARK  162  A    between atoms: _397  and  _398
REMARK  163  A    between atoms: _397  and  _400
REMARK  164  A    between atoms: _400  and  _401
REMARK  165  A    between atoms: _406  and  _408
REMARK  166  A    between atoms: _408  and  _409
REMARK  167  A    between atoms: _408  and  _411
REMARK  168  A    between atoms: _411  and  _412
REMARK  169  A    between atoms: _415  and  _417
REMARK  170  A    between atoms: _417  and  _418
REMARK  171  A    between atoms: _417  and  _420
REMARK  172  A    between atoms: _420  and  _421
REMARK  173  A    between atoms: _424  and  _426
REMARK  174  A    between atoms: _426  and  _427
REMARK  175  A    between atoms: _426  and  _429
REMARK  176  A    between atoms: _429  and  _430
REMARK  177  A    between atoms: _430  and  _431
REMARK  178  A    between atoms: _431  and  _432
REMARK  179  A    between atoms: _432  and  _433
REMARK  180  A    between atoms: _437  and  _439
REMARK  181  A    between atoms: _439  and  _440
REMARK  182  A    between atoms: _443  and  _445
REMARK  183  A    between atoms: _445  and  _446
REMARK  184  A    between atoms: _445  and  _448
REMARK  185  A    between atoms: _448  and  _449
REMARK  186  A    between atoms: _455  and  _457
REMARK  187  A    between atoms: _457  and  _458
REMARK  188  A    between atoms: _457  and  _460
REMARK  189  A    between atoms: _461  and  _462
REMARK  190  A    between atoms: _462  and  _463
REMARK  191  A    between atoms: _463  and  _464
REMARK  192  A    between atoms: _468  and  _470
REMARK  193  A    between atoms: _470  and  _471
REMARK  194  A    between atoms: _470  and  _473
REMARK  195  A    between atoms: _474  and  _475
REMARK  196  A    between atoms: _478  and  _480
REMARK  197  A    between atoms: _480  and  _481
REMARK  198  A    between atoms: _480  and  _483
REMARK  199  A    between atoms: _486  and  _488
REMARK  200  A    between atoms: _488  and  _489
REMARK  201  A    between atoms: _488  and  _491
REMARK  202  A    between atoms: _491  and  _492
REMARK  203  A    between atoms: _495  and  _497
REMARK  204  A    between atoms: _497  and  _498
REMARK  205  A    between atoms: _497  and  _500
REMARK  206  A    between atoms: _500  and  _501
REMARK  207  A    between atoms: _503  and  _505
REMARK  208  A    between atoms: _505  and  _506
REMARK  209  A    between atoms: _505  and  _508
REMARK  210  A    between atoms: _511  and  _513
REMARK  211  A    between atoms: _513  and  _514
REMARK  212  A    between atoms: _513  and  _516
REMARK  213  A    between atoms: _516  and  _517
REMARK  214  A    between atoms: _520  and  _522
REMARK  215  A    between atoms: _522  and  _523
REMARK  216  A    between atoms: _522  and  _525
REMARK  217  A    between atoms: _525  and  _526
REMARK                            x       y       z     vdW  Elec       q    Type
REMARK                         _______ _______ _______ _____ _____    ______ ____
ROOT
ATOM      1  O   HOH     1     -11.881  -3.894   8.688  0.00  0.00    +0.000 OA
ENDROOT
TORSDOF 0
REMARK  Name = ../refined-set-2016/2r75/2r75_pocket.pdb
REMARK  217 active torsions:
REMARK  status: ('A' for Active; 'I' for Inactive)
REMARK    1  A    between atoms: _1  and  _3
REMARK    2  A    between atoms: _3  and  _4
REMARK    3  A    between atoms: _3  and  _6
REMARK    4  A    between atoms: _9  and  _11
REMARK    5  A    between atoms: _11  and  _12
REMARK    6  A    between atoms: _14  and  _16
REMARK    7  A    between atoms: _16  and  _17
REMARK    8  A    between atoms: _19  and  _21
REMARK    9  A    between atoms: _21  and  _22
REMARK   10  A    between atoms: _24  and  _26
REMARK   11  A    between atoms: _26  and  _27
REMARK   12  A    between atoms: _29  and  _31
REMARK   13  A    between atoms: _31  and  _32
REMARK   14  A    between atoms: _31  and  _34
REMARK   15  A    between atoms: _34  and  _35
REMARK   16  A    between atoms: _37  and  _39
REMARK   17  A    between atoms: _39  and  _40
REMARK   18  A    between atoms: _39  and  _42
REMARK   19  A    between atoms: _42  and  _43
REMARK   20  A    between atoms: _48  and  _50
REMARK   21  A    between atoms: _50  and  _51
REMARK   22  A    between atoms: _54  and  _56
REMARK   23  A    between atoms: _56  and  _57
REMARK   24  A    between atoms: _56  and  _59
REMARK   25  A    between atoms: _62  and  _64
REMARK   26  A    between atoms: _64  and  _65
REMARK   27  A    between atoms: _64  and  _67
REMARK   28  A    between atoms: _67  and  _68
REMARK   29  A    between atoms: _73  and  _75
REMARK   30  A    between atoms: _75  and  _76
REMARK   31  A    between atoms: _75  and  _78
REMARK   32  A    between atoms: _78  and  _79
REMARK   33  A    between atoms: _79  and  _80
REMARK   34  A    between atoms: _80  and  _81
REMARK   35  A    between atoms: _90  and  _92
REMARK   36  A    between atoms: _92  and  _93
REMARK   37  A    between atoms: _92  and  _95
REMARK   38  A    between atoms: _95  and  _96
REMARK   39  A    between atoms: _99  and  _101
REMARK   40  A    between atoms: _101  and  _102
REMARK   41  A    between atoms: _101  and  _104
REMARK   42  A    between atoms: _104  and  _105
REMARK   43  A    between atoms: _110  and  _112
REMARK   44  A    between atoms: _112  and  _113
REMARK   45  A    between atoms: _112  and  _115
REMARK   46  A    between atoms: _115  and  _116
REMARK   47  A    between atoms: _119  and  _121
REMARK   48  A    between atoms: _121  and  _122
REMARK   49  A    between atoms: _121  and  _124
REMARK   50  A    between atoms: _124  and  _125
REMARK   51  A    between atoms: _128  and  _130
REMARK   52  A    between atoms: _130  and  _131
REMARK   53  A    between atoms: _130  and  _133
REMARK   54  A    between atoms: _133  and  _134
REMARK   55  A    between atoms: _139  and  _141
REMARK   56  A    between atoms: _141  and  _142
REMARK   57  A    between atoms: _141  and  _144
REMARK   58  A    between atoms: _144  and  _145
REMARK   59  A    between atoms: _148  and  _150
REMARK   60  A    between atoms: _150  and  _151
REMARK   61  A    between atoms: _150  and  _153
REMARK   62  A    between atoms: _153  and  _154
REMARK   63  A    between atoms: _157  and  _159
REMARK   64  A    between atoms: _159  and  _160
REMARK   65  A    between atoms: _162  and  _164
REMARK   66  A    between atoms: _164  and  _165
REMARK   67  A    between atoms: _168  and  _170
REMARK   68  A    between atoms: _170  and  _171
REMARK   69  A    between atoms: _173  and  _175
REMARK   70  A    between atoms: _175  and  _176
REMARK   71  A    between atoms: _179  and  _181
REMARK   72  A    between atoms: _181  and  _182
REMARK   73  A    between atoms: _181  and  _184
REMARK   74  A    between atoms: _184  and  _185
REMARK   75  A    between atoms: _185  and  _186
REMARK   76  A    between atoms: _186  and  _187
REMARK   77  A    between atoms: _187  and  _188
REMARK   78  A    between atoms: _193  and  _194
REMARK   79  A    between atoms: _199  and  _201
REMARK   80  A    between atoms: _201  and  _202
REMARK   81  A    between atoms: _201  and  _204
REMARK   82  A    between atoms: _207  and  _209
REMARK   83  A    between atoms: _209  and  _210
REMARK   84  A    between atoms: _212  and  _214
REMARK   85  A    between atoms: _214  and  _215
REMARK   86  A    between atoms: _214  and  _217
REMARK   87  A    between atoms: _217  and  _218
REMARK   88  A    between atoms: _220  and  _222
REMARK   89  A    between atoms: _222  and  _223
REMARK   90  A    between atoms: _226  and  _228
REMARK   91  A    between atoms: _228  and  _229
REMARK   92  A    between atoms: _231  and  _233
REMARK   93  A    between atoms: _233  and  _234
REMARK   94  A    between atoms: _233  and  _236
REMARK   95  A    between atoms: _236  and  _237
REMARK   96  A    between atoms: _240  and  _242
REMARK   97  A    between atoms: _242  and  _243
REMARK   98  A    between atoms: _245  and  _247
REMARK   99  A    between atoms: _247  and  _248
REMARK  100  A    between atoms: _250  and  _252
REMARK  101  A    between atoms: _252  and  _253
REMARK  102  A    between atoms: _255  and  _257
REMARK  103  A    between atoms: _257  and  _258
REMARK  104  A    between atoms: _257  and  _260
REMARK  105  A    between atoms: _260  and  _261
REMARK  106  A    between atoms: _264  and  _266
REMARK  107  A    between atoms: _266  and  _267
REMARK  108  A    between atoms: _269  and  _271
REMARK  109  A    between atoms: _271  and  _272
REMARK  110  A    between atoms: _271  and  _274
REMARK  111  A    between atoms: _274  and  _275
REMARK  112  A    between atoms: _278  and  _280
REMARK  113  A    between atoms: _280  and  _281
REMARK  114  A    between atoms: _283  and  _285
REMARK  115  A    between atoms: _285  and  _286
REMARK  116  A    between atoms: _289  and  _291
REMARK  117  A    between atoms: _291  and  _292
REMARK  118  A    between atoms: _295  and  _297
REMARK  119  A    between atoms: _297  and  _298
REMARK  120  A    between atoms: _297  and  _300
REMARK  121  A    between atoms: _300  and  _301
REMARK  122  A    between atoms: _304  and  _306
REMARK  123  A    between atoms: _306  and  _307
REMARK  124  A    between atoms: _306  and  _309
REMARK  125  A    between atoms: _309  and  _310
REMARK  126  A    between atoms: _314  and  _315
REMARK  127  A    between atoms: _320  and  _322
REMARK  128  A    between atoms: _322  and  _323
REMARK  129  A    between atoms: _322  and  _325
REMARK  130  A    between atoms: _325  and  _326
REMARK  131  A    between atoms: _332  and  _334
REMARK  132  A    between atoms: _334  and  _335
REMARK  133  A    between atoms: _334  and  _337
REMARK  134  A    between atoms: _337  and  _338
REMARK  135  A    between atoms: _344  and  _346
REMARK  136  A    between atoms: _346  and  _347
REMARK  137  A    between atoms: _346  and  _349
REMARK  138  A    between atoms: _349  and  _350
REMARK  139  A    between atoms: _350  and  _351
REMARK  140  A    between atoms: _354  and  _356
REMARK  141  A    between atoms: _356  and  _357
REMARK  142  A    between atoms: _356  and  _359
REMARK  143  A    between atoms: _359  and  _360
REMARK  144  A    between atoms: _360  and  _361
REMARK  145  A    between atoms: _361  and  _362
REMARK  146  A    between atoms: _362  and  _363
REMARK  147  A    between atoms: _367  and  _369
REMARK  148  A    between atoms: _369  and  _370
REMARK  149  A    between atoms: _369  and  _372
REMARK  150  A    between atoms: _372  and  _373
REMARK  151  A    between atoms: _373  and  _374
REMARK  152  A    between atoms: _376  and  _378
REMARK  153  A    between atoms: _378  and  _379
REMARK  154  A    between atoms: _378  and  _381
REMARK  155  A    between atoms: _381  and  _382
REMARK  156  A    between atoms: _382  and  _383
REMARK  157  A    between atoms: _383  and  _384
REMARK  158  A    between atoms: _384  and  _385
REMARK  159  A    between atoms: _389  and  _391
REMARK  160  A    between atoms: _391  and  _392
REMARK  161  A    between atoms: _395  and  _397
REMARK  162  A    between atoms: _397  and  _398
REMARK  163  A    between atoms: _397  and  _400
REMARK  164  A    between atoms: _400  and  _401
REMARK  165  A    between atoms: _406  and  _408
REMARK  166  A    between atoms: _408  and  _409
REMARK  167  A    between atoms: _408  and  _411
REMARK  168  A    between atoms: _411  and  _412
REMARK  169  A    between atoms: _415  and  _417
REMARK  170  A    between atoms: _417  and  _418
REMARK  171  A    between atoms: _417  and  _420
REMARK  172  A    between atoms: _420  and  _421
REMARK  173  A    between atoms: _424  and  _426
REMARK  174  A    between atoms: _426  and  _427
REMARK  175  A    between atoms: _426  and  _429
REMARK  176  A    between atoms: _429  and  _430
REMARK  177  A    between atoms: _430  and  _431
REMARK  178  A    between atoms: _431  and  _432
REMARK  179  A    between atoms: _432  and  _433
REMARK  180  A    between atoms: _437  and  _439
REMARK  181  A    between atoms: _439  and  _440
REMARK  182  A    between atoms: _443  and  _445
REMARK  183  A    between atoms: _445  and  _446
REMARK  184  A    between atoms: _445  and  _448
REMARK  185  A    between atoms: _448  and  _449
REMARK  186  A    between atoms: _455  and  _457
REMARK  187  A    between atoms: _457  and  _458
REMARK  188  A    between atoms: _457  and  _460
REMARK  189  A    between atoms: _461  and  _462
REMARK  190  A    between atoms: _462  and  _463
REMARK  191  A    between atoms: _463  and  _464
REMARK  192  A    between atoms: _468  and  _470
REMARK  193  A    between atoms: _470  and  _471
REMARK  194  A    between atoms: _470  and  _473
REMARK  195  A    between atoms: _474  and  _475
REMARK  196  A    between atoms: _478  and  _480
REMARK  197  A    between atoms: _480  and  _481
REMARK  198  A    between atoms: _480  and  _483
REMARK  199  A    between atoms: _486  and  _488
REMARK  200  A    between atoms: _488  and  _489
REMARK  201  A    between atoms: _488  and  _491
REMARK  202  A    between atoms: _491  and  _492
REMARK  203  A    between atoms: _495  and  _497
REMARK  204  A    between atoms: _497  and  _498
REMARK  205  A    between atoms: _497  and  _500
REMARK  206  A    between atoms: _500  and  _501
REMARK  207  A    between atoms: _503  and  _505
REMARK  208  A    between atoms: _505  and  _506
REMARK  209  A    between atoms: _505  and  _508
REMARK  210  A    between atoms: _511  and  _513
REMARK  211  A    between atoms: _513  and  _514
REMARK  212  A    between atoms: _513  and  _516
REMARK  213  A    between atoms: _516  and  _517
REMARK  214  A    between atoms: _520  and  _522
REMARK  215  A    between atoms: _522  and  _523
REMARK  216  A    between atoms: _522  and  _525
REMARK  217  A    between atoms: _525  and  _526
REMARK                            x       y       z     vdW  Elec       q    Type
REMARK                         _______ _______ _______ _____ _____    ______ ____
ROOT
ATOM      1  O   HOH     1      -2.958   3.858  19.153  0.00  0.00    +0.000 OA
ENDROOT
TORSDOF 0
REMARK  Name = ../refined-set-2016/2r75/2r75_pocket.pdb
REMARK  217 active torsions:
REMARK  status: ('A' for Active; 'I' for Inactive)
REMARK    1  A    between atoms: _1  and  _3
REMARK    2  A    between atoms: _3  and  _4
REMARK    3  A    between atoms: _3  and  _6
REMARK    4  A    between atoms: _9  and  _11
REMARK    5  A    between atoms: _11  and  _12
REMARK    6  A    between atoms: _14  and  _16
REMARK    7  A    between atoms: _16  and  _17
REMARK    8  A    between atoms: _19  and  _21
REMARK    9  A    between atoms: _21  and  _22
REMARK   10  A    between atoms: _24  and  _26
REMARK   11  A    between atoms: _26  and  _27
REMARK   12  A    between atoms: _29  and  _31
REMARK   13  A    between atoms: _31  and  _32
REMARK   14  A    between atoms: _31  and  _34
REMARK   15  A    between atoms: _34  and  _35
REMARK   16  A    between atoms: _37  and  _39
REMARK   17  A    between atoms: _39  and  _40
REMARK   18  A    between atoms: _39  and  _42
REMARK   19  A    between atoms: _42  and  _43
REMARK   20  A    between atoms: _48  and  _50
REMARK   21  A    between atoms: _50  and  _51
REMARK   22  A    between atoms: _54  and  _56
REMARK   23  A    between atoms: _56  and  _57
REMARK   24  A    between atoms: _56  and  _59
REMARK   25  A    between atoms: _62  and  _64
REMARK   26  A    between atoms: _64  and  _65
REMARK   27  A    between atoms: _64  and  _67
REMARK   28  A    between atoms: _67  and  _68
REMARK   29  A    between atoms: _73  and  _75
REMARK   30  A    between atoms: _75  and  _76
REMARK   31  A    between atoms: _75  and  _78
REMARK   32  A    between atoms: _78  and  _79
REMARK   33  A    between atoms: _79  and  _80
REMARK   34  A    between atoms: _80  and  _81
REMARK   35  A    between atoms: _90  and  _92
REMARK   36  A    between atoms: _92  and  _93
REMARK   37  A    between atoms: _92  and  _95
REMARK   38  A    between atoms: _95  and  _96
REMARK   39  A    between atoms: _99  and  _101
REMARK   40  A    between atoms: _101  and  _102
REMARK   41  A    between atoms: _101  and  _104
REMARK   42  A    between atoms: _104  and  _105
REMARK   43  A    between atoms: _110  and  _112
REMARK   44  A    between atoms: _112  and  _113
REMARK   45  A    between atoms: _112  and  _115
REMARK   46  A    between atoms: _115  and  _116
REMARK   47  A    between atoms: _119  and  _121
REMARK   48  A    between atoms: _121  and  _122
REMARK   49  A    between atoms: _121  and  _124
REMARK   50  A    between atoms: _124  and  _125
REMARK   51  A    between atoms: _128  and  _130
REMARK   52  A    between atoms: _130  and  _131
REMARK   53  A    between atoms: _130  and  _133
REMARK   54  A    between atoms: _133  and  _134
REMARK   55  A    between atoms: _139  and  _141
REMARK   56  A    between atoms: _141  and  _142
REMARK   57  A    between atoms: _141  and  _144
REMARK   58  A    between atoms: _144  and  _145
REMARK   59  A    between atoms: _148  and  _150
REMARK   60  A    between atoms: _150  and  _151
REMARK   61  A    between atoms: _150  and  _153
REMARK   62  A    between atoms: _153  and  _154
REMARK   63  A    between atoms: _157  and  _159
REMARK   64  A    between atoms: _159  and  _160
REMARK   65  A    between atoms: _162  and  _164
REMARK   66  A    between atoms: _164  and  _165
REMARK   67  A    between atoms: _168  and  _170
REMARK   68  A    between atoms: _170  and  _171
REMARK   69  A    between atoms: _173  and  _175
REMARK   70  A    between atoms: _175  and  _176
REMARK   71  A    between atoms: _179  and  _181
REMARK   72  A    between atoms: _181  and  _182
REMARK   73  A    between atoms: _181  and  _184
REMARK   74  A    between atoms: _184  and  _185
REMARK   75  A    between atoms: _185  and  _186
REMARK   76  A    between atoms: _186  and  _187
REMARK   77  A    between atoms: _187  and  _188
REMARK   78  A    between atoms: _193  and  _194
REMARK   79  A    between atoms: _199  and  _201
REMARK   80  A    between atoms: _201  and  _202
REMARK   81  A    between atoms: _201  and  _204
REMARK   82  A    between atoms: _207  and  _209
REMARK   83  A    between atoms: _209  and  _210
REMARK   84  A    between atoms: _212  and  _214
REMARK   85  A    between atoms: _214  and  _215
REMARK   86  A    between atoms: _214  and  _217
REMARK   87  A    between atoms: _217  and  _218
REMARK   88  A    between atoms: _220  and  _222
REMARK   89  A    between atoms: _222  and  _223
REMARK   90  A    between atoms: _226  and  _228
REMARK   91  A    between atoms: _228  and  _229
REMARK   92  A    between atoms: _231  and  _233
REMARK   93  A    between atoms: _233  and  _234
REMARK   94  A    between atoms: _233  and  _236
REMARK   95  A    between atoms: _236  and  _237
REMARK   96  A    between atoms: _240  and  _242
REMARK   97  A    between atoms: _242  and  _243
REMARK   98  A    between atoms: _245  and  _247
REMARK   99  A    between atoms: _247  and  _248
REMARK  100  A    between atoms: _250  and  _252
REMARK  101  A    between atoms: _252  and  _253
REMARK  102  A    between atoms: _255  and  _257
REMARK  103  A    between atoms: _257  and  _258
REMARK  104  A    between atoms: _257  and  _260
REMARK  105  A    between atoms: _260  and  _261
REMARK  106  A    between atoms: _264  and  _266
REMARK  107  A    between atoms: _266  and  _267
REMARK  108  A    between atoms: _269  and  _271
REMARK  109  A    between atoms: _271  and  _272
REMARK  110  A    between atoms: _271  and  _274
REMARK  111  A    between atoms: _274  and  _275
REMARK  112  A    between atoms: _278  and  _280
REMARK  113  A    between atoms: _280  and  _281
REMARK  114  A    between atoms: _283  and  _285
REMARK  115  A    between atoms: _285  and  _286
REMARK  116  A    between atoms: _289  and  _291
REMARK  117  A    between atoms: _291  and  _292
REMARK  118  A    between atoms: _295  and  _297
REMARK  119  A    between atoms: _297  and  _298
REMARK  120  A    between atoms: _297  and  _300
REMARK  121  A    between atoms: _300  and  _301
REMARK  122  A    between atoms: _304  and  _306
REMARK  123  A    between atoms: _306  and  _307
REMARK  124  A    between atoms: _306  and  _309
REMARK  125  A    between atoms: _309  and  _310
REMARK  126  A    between atoms: _314  and  _315
REMARK  127  A    between atoms: _320  and  _322
REMARK  128  A    between atoms: _322  and  _323
REMARK  129  A    between atoms: _322  and  _325
REMARK  130  A    between atoms: _325  and  _326
REMARK  131  A    between atoms: _332  and  _334
REMARK  132  A    between atoms: _334  and  _335
REMARK  133  A    between atoms: _334  and  _337
REMARK  134  A    between atoms: _337  and  _338
REMARK  135  A    between atoms: _344  and  _346
REMARK  136  A    between atoms: _346  and  _347
REMARK  137  A    between atoms: _346  and  _349
REMARK  138  A    between atoms: _349  and  _350
REMARK  139  A    between atoms: _350  and  _351
REMARK  140  A    between atoms: _354  and  _356
REMARK  141  A    between atoms: _356  and  _357
REMARK  142  A    between atoms: _356  and  _359
REMARK  143  A    between atoms: _359  and  _360
REMARK  144  A    between atoms: _360  and  _361
REMARK  145  A    between atoms: _361  and  _362
REMARK  146  A    between atoms: _362  and  _363
REMARK  147  A    between atoms: _367  and  _369
REMARK  148  A    between atoms: _369  and  _370
REMARK  149  A    between atoms: _369  and  _372
REMARK  150  A    between atoms: _372  and  _373
REMARK  151  A    between atoms: _373  and  _374
REMARK  152  A    between atoms: _376  and  _378
REMARK  153  A    between atoms: _378  and  _379
REMARK  154  A    between atoms: _378  and  _381
REMARK  155  A    between atoms: _381  and  _382
REMARK  156  A    between atoms: _382  and  _383
REMARK  157  A    between atoms: _383  and  _384
REMARK  158  A    between atoms: _384  and  _385
REMARK  159  A    between atoms: _389  and  _391
REMARK  160  A    between atoms: _391  and  _392
REMARK  161  A    between atoms: _395  and  _397
REMARK  162  A    between atoms: _397  and  _398
REMARK  163  A    between atoms: _397  and  _400
REMARK  164  A    between atoms: _400  and  _401
REMARK  165  A    between atoms: _406  and  _408
REMARK  166  A    between atoms: _408  and  _409
REMARK  167  A    between atoms: _408  and  _411
REMARK  168  A    between atoms: _411  and  _412
REMARK  169  A    between atoms: _415  and  _417
REMARK  170  A    between atoms: _417  and  _418
REMARK  171  A    between atoms: _417  and  _420
REMARK  172  A    between atoms: _420  and  _421
REMARK  173  A    between atoms: _424  and  _426
REMARK  174  A    between atoms: _426  and  _427
REMARK  175  A    between atoms: _426  and  _429
REMARK  176  A    between atoms: _429  and  _430
REMARK  177  A    between atoms: _430  and  _431
REMARK  178  A    between atoms: _431  and  _432
REMARK  179  A    between atoms: _432  and  _433
REMARK  180  A    between atoms: _437  and  _439
REMARK  181  A    between atoms: _439  and  _440
REMARK  182  A    between atoms: _443  and  _445
REMARK  183  A    between atoms: _445  and  _446
REMARK  184  A    between atoms: _445  and  _448
REMARK  185  A    between atoms: _448  and  _449
REMARK  186  A    between atoms: _455  and  _457
REMARK  187  A    between atoms: _457  and  _458
REMARK  188  A    between atoms: _457  and  _460
REMARK  189  A    between atoms: _461  and  _462
REMARK  190  A    between atoms: _462  and  _463
REMARK  191  A    between atoms: _463  and  _464
REMARK  192  A    between atoms: _468  and  _470
REMARK  193  A    between atoms: _470  and  _471
REMARK  194  A    between atoms: _470  and  _473
REMARK  195  A    between atoms: _474  and  _475
REMARK  196  A    between atoms: _478  and  _480
REMARK  197  A    between atoms: _480  and  _481
REMARK  198  A    between atoms: _480  and  _483
REMARK  199  A    between atoms: _486  and  _488
REMARK  200  A    between atoms: _488  and  _489
REMARK  201  A    between atoms: _488  and  _491
REMARK  202  A    between atoms: _491  and  _492
REMARK  203  A    between atoms: _495  and  _497
REMARK  204  A    between atoms: _497  and  _498
REMARK  205  A    between atoms: _497  and  _500
REMARK  206  A    between atoms: _500  and  _501
REMARK  207  A    between atoms: _503  and  _505
REMARK  208  A    between atoms: _505  and  _506
REMARK  209  A    between atoms: _505  and  _508
REMARK  210  A    between atoms: _511  and  _513
REMARK  211  A    between atoms: _513  and  _514
REMARK  212  A    between atoms: _513  and  _516
REMARK  213  A    between atoms: _516  and  _517
REMARK  214  A    between atoms: _520  and  _522
REMARK  215  A    between atoms: _522  and  _523
REMARK  216  A    between atoms: _522  and  _525
REMARK  217  A    between atoms: _525  and  _526
REMARK                            x       y       z     vdW  Elec       q    Type
REMARK                         _______ _______ _______ _____ _____    ______ ____
ROOT
ATOM      1  O   HOH     1       2.120  -5.327  13.064  0.00  0.00    +0.000 OA
ENDROOT
TORSDOF 0
REMARK  Name = ../refined-set-2016/2r75/2r75_pocket.pdb
REMARK  217 active torsions:
REMARK  status: ('A' for Active; 'I' for Inactive)
REMARK    1  A    between atoms: _1  and  _3
REMARK    2  A    between atoms: _3  and  _4
REMARK    3  A    between atoms: _3  and  _6
REMARK    4  A    between atoms: _9  and  _11
REMARK    5  A    between atoms: _11  and  _12
REMARK    6  A    between atoms: _14  and  _16
REMARK    7  A    between atoms: _16  and  _17
REMARK    8  A    between atoms: _19  and  _21
REMARK    9  A    between atoms: _21  and  _22
REMARK   10  A    between atoms: _24  and  _26
REMARK   11  A    between atoms: _26  and  _27
REMARK   12  A    between atoms: _29  and  _31
REMARK   13  A    between atoms: _31  and  _32
REMARK   14  A    between atoms: _31  and  _34
REMARK   15  A    between atoms: _34  and  _35
REMARK   16  A    between atoms: _37  and  _39
REMARK   17  A    between atoms: _39  and  _40
REMARK   18  A    between atoms: _39  and  _42
REMARK   19  A    between atoms: _42  and  _43
REMARK   20  A    between atoms: _48  and  _50
REMARK   21  A    between atoms: _50  and  _51
REMARK   22  A    between atoms: _54  and  _56
REMARK   23  A    between atoms: _56  and  _57
REMARK   24  A    between atoms: _56  and  _59
REMARK   25  A    between atoms: _62  and  _64
REMARK   26  A    between atoms: _64  and  _65
REMARK   27  A    between atoms: _64  and  _67
REMARK   28  A    between atoms: _67  and  _68
REMARK   29  A    between atoms: _73  and  _75
REMARK   30  A    between atoms: _75  and  _76
REMARK   31  A    between atoms: _75  and  _78
REMARK   32  A    between atoms: _78  and  _79
REMARK   33  A    between atoms: _79  and  _80
REMARK   34  A    between atoms: _80  and  _81
REMARK   35  A    between atoms: _90  and  _92
REMARK   36  A    between atoms: _92  and  _93
REMARK   37  A    between atoms: _92  and  _95
REMARK   38  A    between atoms: _95  and  _96
REMARK   39  A    between atoms: _99  and  _101
REMARK   40  A    between atoms: _101  and  _102
REMARK   41  A    between atoms: _101  and  _104
REMARK   42  A    between atoms: _104  and  _105
REMARK   43  A    between atoms: _110  and  _112
REMARK   44  A    between atoms: _112  and  _113
REMARK   45  A    between atoms: _112  and  _115
REMARK   46  A    between atoms: _115  and  _116
REMARK   47  A    between atoms: _119  and  _121
REMARK   48  A    between atoms: _121  and  _122
REMARK   49  A    between atoms: _121  and  _124
REMARK   50  A    between atoms: _124  and  _125
REMARK   51  A    between atoms: _128  and  _130
REMARK   52  A    between atoms: _130  and  _131
REMARK   53  A    between atoms: _130  and  _133
REMARK   54  A    between atoms: _133  and  _134
REMARK   55  A    between atoms: _139  and  _141
REMARK   56  A    between atoms: _141  and  _142
REMARK   57  A    between atoms: _141  and  _144
REMARK   58  A    between atoms: _144  and  _145
REMARK   59  A    between atoms: _148  and  _150
REMARK   60  A    between atoms: _150  and  _151
REMARK   61  A    between atoms: _150  and  _153
REMARK   62  A    between atoms: _153  and  _154
REMARK   63  A    between atoms: _157  and  _159
REMARK   64  A    between atoms: _159  and  _160
REMARK   65  A    between atoms: _162  and  _164
REMARK   66  A    between atoms: _164  and  _165
REMARK   67  A    between atoms: _168  and  _170
REMARK   68  A    between atoms: _170  and  _171
REMARK   69  A    between atoms: _173  and  _175
REMARK   70  A    between atoms: _175  and  _176
REMARK   71  A    between atoms: _179  and  _181
REMARK   72  A    between atoms: _181  and  _182
REMARK   73  A    between atoms: _181  and  _184
REMARK   74  A    between atoms: _184  and  _185
REMARK   75  A    between atoms: _185  and  _186
REMARK   76  A    between atoms: _186  and  _187
REMARK   77  A    between atoms: _187  and  _188
REMARK   78  A    between atoms: _193  and  _194
REMARK   79  A    between atoms: _199  and  _201
REMARK   80  A    between atoms: _201  and  _202
REMARK   81  A    between atoms: _201  and  _204
REMARK   82  A    between atoms: _207  and  _209
REMARK   83  A    between atoms: _209  and  _210
REMARK   84  A    between atoms: _212  and  _214
REMARK   85  A    between atoms: _214  and  _215
REMARK   86  A    between atoms: _214  and  _217
REMARK   87  A    between atoms: _217  and  _218
REMARK   88  A    between atoms: _220  and  _222
REMARK   89  A    between atoms: _222  and  _223
REMARK   90  A    between atoms: _226  and  _228
REMARK   91  A    between atoms: _228  and  _229
REMARK   92  A    between atoms: _231  and  _233
REMARK   93  A    between atoms: _233  and  _234
REMARK   94  A    between atoms: _233  and  _236
REMARK   95  A    between atoms: _236  and  _237
REMARK   96  A    between atoms: _240  and  _242
REMARK   97  A    between atoms: _242  and  _243
REMARK   98  A    between atoms: _245  and  _247
REMARK   99  A    between atoms: _247  and  _248
REMARK  100  A    between atoms: _250  and  _252
REMARK  101  A    between atoms: _252  and  _253
REMARK  102  A    between atoms: _255  and  _257
REMARK  103  A    between atoms: _257  and  _258
REMARK  104  A    between atoms: _257  and  _260
REMARK  105  A    between atoms: _260  and  _261
REMARK  106  A    between atoms: _264  and  _266
REMARK  107  A    between atoms: _266  and  _267
REMARK  108  A    between atoms: _269  and  _271
REMARK  109  A    between atoms: _271  and  _272
REMARK  110  A    between atoms: _271  and  _274
REMARK  111  A    between atoms: _274  and  _275
REMARK  112  A    between atoms: _278  and  _280
REMARK  113  A    between atoms: _280  and  _281
REMARK  114  A    between atoms: _283  and  _285
REMARK  115  A    between atoms: _285  and  _286
REMARK  116  A    between atoms: _289  and  _291
REMARK  117  A    between atoms: _291  and  _292
REMARK  118  A    between atoms: _295  and  _297
REMARK  119  A    between atoms: _297  and  _298
REMARK  120  A    between atoms: _297  and  _300
REMARK  121  A    between atoms: _300  and  _301
REMARK  122  A    between atoms: _304  and  _306
REMARK  123  A    between atoms: _306  and  _307
REMARK  124  A    between atoms: _306  and  _309
REMARK  125  A    between atoms: _309  and  _310
REMARK  126  A    between atoms: _314  and  _315
REMARK  127  A    between atoms: _320  and  _322
REMARK  128  A    between atoms: _322  and  _323
REMARK  129  A    between atoms: _322  and  _325
REMARK  130  A    between atoms: _325  and  _326
REMARK  131  A    between atoms: _332  and  _334
REMARK  132  A    between atoms: _334  and  _335
REMARK  133  A    between atoms: _334  and  _337
REMARK  134  A    between atoms: _337  and  _338
REMARK  135  A    between atoms: _344  and  _346
REMARK  136  A    between atoms: _346  and  _347
REMARK  137  A    between atoms: _346  and  _349
REMARK  138  A    between atoms: _349  and  _350
REMARK  139  A    between atoms: _350  and  _351
REMARK  140  A    between atoms: _354  and  _356
REMARK  141  A    between atoms: _356  and  _357
REMARK  142  A    between atoms: _356  and  _359
REMARK  143  A    between atoms: _359  and  _360
REMARK  144  A    between atoms: _360  and  _361
REMARK  145  A    between atoms: _361  and  _362
REMARK  146  A    between atoms: _362  and  _363
REMARK  147  A    between atoms: _367  and  _369
REMARK  148  A    between atoms: _369  and  _370
REMARK  149  A    between atoms: _369  and  _372
REMARK  150  A    between atoms: _372  and  _373
REMARK  151  A    between atoms: _373  and  _374
REMARK  152  A    between atoms: _376  and  _378
REMARK  153  A    between atoms: _378  and  _379
REMARK  154  A    between atoms: _378  and  _381
REMARK  155  A    between atoms: _381  and  _382
REMARK  156  A    between atoms: _382  and  _383
REMARK  157  A    between atoms: _383  and  _384
REMARK  158  A    between atoms: _384  and  _385
REMARK  159  A    between atoms: _389  and  _391
REMARK  160  A    between atoms: _391  and  _392
REMARK  161  A    between atoms: _395  and  _397
REMARK  162  A    between atoms: _397  and  _398
REMARK  163  A    between atoms: _397  and  _400
REMARK  164  A    between atoms: _400  and  _401
REMARK  165  A    between atoms: _406  and  _408
REMARK  166  A    between atoms: _408  and  _409
REMARK  167  A    between atoms: _408  and  _411
REMARK  168  A    between atoms: _411  and  _412
REMARK  169  A    between atoms: _415  and  _417
REMARK  170  A    between atoms: _417  and  _418
REMARK  171  A    between atoms: _417  and  _420
REMARK  172  A    between atoms: _420  and  _421
REMARK  173  A    between atoms: _424  and  _426
REMARK  174  A    between atoms: _426  and  _427
REMARK  175  A    between atoms: _426  and  _429
REMARK  176  A    between atoms: _429  and  _430
REMARK  177  A    between atoms: _430  and  _431
REMARK  178  A    between atoms: _431  and  _432
REMARK  179  A    between atoms: _432  and  _433
REMARK  180  A    between atoms: _437  and  _439
REMARK  181  A    between atoms: _439  and  _440
REMARK  182  A    between atoms: _443  and  _445
REMARK  183  A    between atoms: _445  and  _446
REMARK  184  A    between atoms: _445  and  _448
REMARK  185  A    between atoms: _448  and  _449
REMARK  186  A    between atoms: _455  and  _457
REMARK  187  A    between atoms: _457  and  _458
REMARK  188  A    between atoms: _457  and  _460
REMARK  189  A    between atoms: _461  and  _462
REMARK  190  A    between atoms: _462  and  _463
REMARK  191  A    between atoms: _463  and  _464
REMARK  192  A    between atoms: _468  and  _470
REMARK  193  A    between atoms: _470  and  _471
REMARK  194  A    between atoms: _470  and  _473
REMARK  195  A    between atoms: _474  and  _475
REMARK  196  A    between atoms: _478  and  _480
REMARK  197  A    between atoms: _480  and  _481
REMARK  198  A    between atoms: _480  and  _483
REMARK  199  A    between atoms: _486  and  _488
REMARK  200  A    between atoms: _488  and  _489
REMARK  201  A    between atoms: _488  and  _491
REMARK  202  A    between atoms: _491  and  _492
REMARK  203  A    between atoms: _495  and  _497
REMARK  204  A    between atoms: _497  and  _498
REMARK  205  A    between atoms: _497  and  _500
REMARK  206  A    between atoms: _500  and  _501
REMARK  207  A    between atoms: _503  and  _505
REMARK  208  A    between atoms: _505  and  _506
REMARK  209  A    between atoms: _505  and  _508
REMARK  210  A    between atoms: _511  and  _513
REMARK  211  A    between atoms: _513  and  _514
REMARK  212  A    between atoms: _513  and  _516
REMARK  213  A    between atoms: _516  and  _517
REMARK  214  A    between atoms: _520  and  _522
REMARK  215  A    between atoms: _522  and  _523
REMARK  216  A    between atoms: _522  and  _525
REMARK  217  A    between atoms: _525  and  _526
REMARK                            x       y       z     vdW  Elec       q    Type
REMARK                         _______ _______ _______ _____ _____    ______ ____
ROOT
ATOM      1  O   HOH     1      -7.867   0.377  13.252  0.00  0.00    +0.000 OA
ENDROOT
TORSDOF 0
REMARK  Name = ../refined-set-2016/2r75/2r75_pocket.pdb
REMARK  217 active torsions:
REMARK  status: ('A' for Active; 'I' for Inactive)
REMARK    1  A    between atoms: _1  and  _3
REMARK    2  A    between atoms: _3  and  _4
REMARK    3  A    between atoms: _3  and  _6
REMARK    4  A    between atoms: _9  and  _11
REMARK    5  A    between atoms: _11  and  _12
REMARK    6  A    between atoms: _14  and  _16
REMARK    7  A    between atoms: _16  and  _17
REMARK    8  A    between atoms: _19  and  _21
REMARK    9  A    between atoms: _21  and  _22
REMARK   10  A    between atoms: _24  and  _26
REMARK   11  A    between atoms: _26  and  _27
REMARK   12  A    between atoms: _29  and  _31
REMARK   13  A    between atoms: _31  and  _32
REMARK   14  A    between atoms: _31  and  _34
REMARK   15  A    between atoms: _34  and  _35
REMARK   16  A    between atoms: _37  and  _39
REMARK   17  A    between atoms: _39  and  _40
REMARK   18  A    between atoms: _39  and  _42
REMARK   19  A    between atoms: _42  and  _43
REMARK   20  A    between atoms: _48  and  _50
REMARK   21  A    between atoms: _50  and  _51
REMARK   22  A    between atoms: _54  and  _56
REMARK   23  A    between atoms: _56  and  _57
REMARK   24  A    between atoms: _56  and  _59
REMARK   25  A    between atoms: _62  and  _64
REMARK   26  A    between atoms: _64  and  _65
REMARK   27  A    between atoms: _64  and  _67
REMARK   28  A    between atoms: _67  and  _68
REMARK   29  A    between atoms: _73  and  _75
REMARK   30  A    between atoms: _75  and  _76
REMARK   31  A    between atoms: _75  and  _78
REMARK   32  A    between atoms: _78  and  _79
REMARK   33  A    between atoms: _79  and  _80
REMARK   34  A    between atoms: _80  and  _81
REMARK   35  A    between atoms: _90  and  _92
REMARK   36  A    between atoms: _92  and  _93
REMARK   37  A    between atoms: _92  and  _95
REMARK   38  A    between atoms: _95  and  _96
REMARK   39  A    between atoms: _99  and  _101
REMARK   40  A    between atoms: _101  and  _102
REMARK   41  A    between atoms: _101  and  _104
REMARK   42  A    between atoms: _104  and  _105
REMARK   43  A    between atoms: _110  and  _112
REMARK   44  A    between atoms: _112  and  _113
REMARK   45  A    between atoms: _112  and  _115
REMARK   46  A    between atoms: _115  and  _116
REMARK   47  A    between atoms: _119  and  _121
REMARK   48  A    between atoms: _121  and  _122
REMARK   49  A    between atoms: _121  and  _124
REMARK   50  A    between atoms: _124  and  _125
REMARK   51  A    between atoms: _128  and  _130
REMARK   52  A    between atoms: _130  and  _131
REMARK   53  A    between atoms: _130  and  _133
REMARK   54  A    between atoms: _133  and  _134
REMARK   55  A    between atoms: _139  and  _141
REMARK   56  A    between atoms: _141  and  _142
REMARK   57  A    between atoms: _141  and  _144
REMARK   58  A    between atoms: _144  and  _145
REMARK   59  A    between atoms: _148  and  _150
REMARK   60  A    between atoms: _150  and  _151
REMARK   61  A    between atoms: _150  and  _153
REMARK   62  A    between atoms: _153  and  _154
REMARK   63  A    between atoms: _157  and  _159
REMARK   64  A    between atoms: _159  and  _160
REMARK   65  A    between atoms: _162  and  _164
REMARK   66  A    between atoms: _164  and  _165
REMARK   67  A    between atoms: _168  and  _170
REMARK   68  A    between atoms: _170  and  _171
REMARK   69  A    between atoms: _173  and  _175
REMARK   70  A    between atoms: _175  and  _176
REMARK   71  A    between atoms: _179  and  _181
REMARK   72  A    between atoms: _181  and  _182
REMARK   73  A    between atoms: _181  and  _184
REMARK   74  A    between atoms: _184  and  _185
REMARK   75  A    between atoms: _185  and  _186
REMARK   76  A    between atoms: _186  and  _187
REMARK   77  A    between atoms: _187  and  _188
REMARK   78  A    between atoms: _193  and  _194
REMARK   79  A    between atoms: _199  and  _201
REMARK   80  A    between atoms: _201  and  _202
REMARK   81  A    between atoms: _201  and  _204
REMARK   82  A    between atoms: _207  and  _209
REMARK   83  A    between atoms: _209  and  _210
REMARK   84  A    between atoms: _212  and  _214
REMARK   85  A    between atoms: _214  and  _215
REMARK   86  A    between atoms: _214  and  _217
REMARK   87  A    between atoms: _217  and  _218
REMARK   88  A    between atoms: _220  and  _222
REMARK   89  A    between atoms: _222  and  _223
REMARK   90  A    between atoms: _226  and  _228
REMARK   91  A    between atoms: _228  and  _229
REMARK   92  A    between atoms: _231  and  _233
REMARK   93  A    between atoms: _233  and  _234
REMARK   94  A    between atoms: _233  and  _236
REMARK   95  A    between atoms: _236  and  _237
REMARK   96  A    between atoms: _240  and  _242
REMARK   97  A    between atoms: _242  and  _243
REMARK   98  A    between atoms: _245  and  _247
REMARK   99  A    between atoms: _247  and  _248
REMARK  100  A    between atoms: _250  and  _252
REMARK  101  A    between atoms: _252  and  _253
REMARK  102  A    between atoms: _255  and  _257
REMARK  103  A    between atoms: _257  and  _258
REMARK  104  A    between atoms: _257  and  _260
REMARK  105  A    between atoms: _260  and  _261
REMARK  106  A    between atoms: _264  and  _266
REMARK  107  A    between atoms: _266  and  _267
REMARK  108  A    between atoms: _269  and  _271
REMARK  109  A    between atoms: _271  and  _272
REMARK  110  A    between atoms: _271  and  _274
REMARK  111  A    between atoms: _274  and  _275
REMARK  112  A    between atoms: _278  and  _280
REMARK  113  A    between atoms: _280  and  _281
REMARK  114  A    between atoms: _283  and  _285
REMARK  115  A    between atoms: _285  and  _286
REMARK  116  A    between atoms: _289  and  _291
REMARK  117  A    between atoms: _291  and  _292
REMARK  118  A    between atoms: _295  and  _297
REMARK  119  A    between atoms: _297  and  _298
REMARK  120  A    between atoms: _297  and  _300
REMARK  121  A    between atoms: _300  and  _301
REMARK  122  A    between atoms: _304  and  _306
REMARK  123  A    between atoms: _306  and  _307
REMARK  124  A    between atoms: _306  and  _309
REMARK  125  A    between atoms: _309  and  _310
REMARK  126  A    between atoms: _314  and  _315
REMARK  127  A    between atoms: _320  and  _322
REMARK  128  A    between atoms: _322  and  _323
REMARK  129  A    between atoms: _322  and  _325
REMARK  130  A    between atoms: _325  and  _326
REMARK  131  A    between atoms: _332  and  _334
REMARK  132  A    between atoms: _334  and  _335
REMARK  133  A    between atoms: _334  and  _337
REMARK  134  A    between atoms: _337  and  _338
REMARK  135  A    between atoms: _344  and  _346
REMARK  136  A    between atoms: _346  and  _347
REMARK  137  A    between atoms: _346  and  _349
REMARK  138  A    between atoms: _349  and  _350
REMARK  139  A    between atoms: _350  and  _351
REMARK  140  A    between atoms: _354  and  _356
REMARK  141  A    between atoms: _356  and  _357
REMARK  142  A    between atoms: _356  and  _359
REMARK  143  A    between atoms: _359  and  _360
REMARK  144  A    between atoms: _360  and  _361
REMARK  145  A    between atoms: _361  and  _362
REMARK  146  A    between atoms: _362  and  _363
REMARK  147  A    between atoms: _367  and  _369
REMARK  148  A    between atoms: _369  and  _370
REMARK  149  A    between atoms: _369  and  _372
REMARK  150  A    between atoms: _372  and  _373
REMARK  151  A    between atoms: _373  and  _374
REMARK  152  A    between atoms: _376  and  _378
REMARK  153  A    between atoms: _378  and  _379
REMARK  154  A    between atoms: _378  and  _381
REMARK  155  A    between atoms: _381  and  _382
REMARK  156  A    between atoms: _382  and  _383
REMARK  157  A    between atoms: _383  and  _384
REMARK  158  A    between atoms: _384  and  _385
REMARK  159  A    between atoms: _389  and  _391
REMARK  160  A    between atoms: _391  and  _392
REMARK  161  A    between atoms: _395  and  _397
REMARK  162  A    between atoms: _397  and  _398
REMARK  163  A    between atoms: _397  and  _400
REMARK  164  A    between atoms: _400  and  _401
REMARK  165  A    between atoms: _406  and  _408
REMARK  166  A    between atoms: _408  and  _409
REMARK  167  A    between atoms: _408  and  _411
REMARK  168  A    between atoms: _411  and  _412
REMARK  169  A    between atoms: _415  and  _417
REMARK  170  A    between atoms: _417  and  _418
REMARK  171  A    between atoms: _417  and  _420
REMARK  172  A    between atoms: _420  and  _421
REMARK  173  A    between atoms: _424  and  _426
REMARK  174  A    between atoms: _426  and  _427
REMARK  175  A    between atoms: _426  and  _429
REMARK  176  A    between atoms: _429  and  _430
REMARK  177  A    between atoms: _430  and  _431
REMARK  178  A    between atoms: _431  and  _432
REMARK  179  A    between atoms: _432  and  _433
REMARK  180  A    between atoms: _437  and  _439
REMARK  181  A    between atoms: _439  and  _440
REMARK  182  A    between atoms: _443  and  _445
REMARK  183  A    between atoms: _445  and  _446
REMARK  184  A    between atoms: _445  and  _448
REMARK  185  A    between atoms: _448  and  _449
REMARK  186  A    between atoms: _455  and  _457
REMARK  187  A    between atoms: _457  and  _458
REMARK  188  A    between atoms: _457  and  _460
REMARK  189  A    between atoms: _461  and  _462
REMARK  190  A    between atoms: _462  and  _463
REMARK  191  A    between atoms: _463  and  _464
REMARK  192  A    between atoms: _468  and  _470
REMARK  193  A    between atoms: _470  and  _471
REMARK  194  A    between atoms: _470  and  _473
REMARK  195  A    between atoms: _474  and  _475
REMARK  196  A    between atoms: _478  and  _480
REMARK  197  A    between atoms: _480  and  _481
REMARK  198  A    between atoms: _480  and  _483
REMARK  199  A    between atoms: _486  and  _488
REMARK  200  A    between atoms: _488  and  _489
REMARK  201  A    between atoms: _488  and  _491
REMARK  202  A    between atoms: _491  and  _492
REMARK  203  A    between atoms: _495  and  _497
REMARK  204  A    between atoms: _497  and  _498
REMARK  205  A    between atoms: _497  and  _500
REMARK  206  A    between atoms: _500  and  _501
REMARK  207  A    between atoms: _503  and  _505
REMARK  208  A    between atoms: _505  and  _506
REMARK  209  A    between atoms: _505  and  _508
REMARK  210  A    between atoms: _511  and  _513
REMARK  211  A    between atoms: _513  and  _514
REMARK  212  A    between atoms: _513  and  _516
REMARK  213  A    between atoms: _516  and  _517
REMARK  214  A    between atoms: _520  and  _522
REMARK  215  A    between atoms: _522  and  _523
REMARK  216  A    between atoms: _522  and  _525
REMARK  217  A    between atoms: _525  and  _526
REMARK                            x       y       z     vdW  Elec       q    Type
REMARK                         _______ _______ _______ _____ _____    ______ ____
ROOT
ATOM      1  O   HOH     1      -5.342   1.298  21.682  0.00  0.00    +0.000 OA
ENDROOT
TORSDOF 0
REMARK  Name = ../refined-set-2016/2r75/2r75_pocket.pdb
REMARK  217 active torsions:
REMARK  status: ('A' for Active; 'I' for Inactive)
REMARK    1  A    between atoms: _1  and  _3
REMARK    2  A    between atoms: _3  and  _4
REMARK    3  A    between atoms: _3  and  _6
REMARK    4  A    between atoms: _9  and  _11
REMARK    5  A    between atoms: _11  and  _12
REMARK    6  A    between atoms: _14  and  _16
REMARK    7  A    between atoms: _16  and  _17
REMARK    8  A    between atoms: _19  and  _21
REMARK    9  A    between atoms: _21  and  _22
REMARK   10  A    between atoms: _24  and  _26
REMARK   11  A    between atoms: _26  and  _27
REMARK   12  A    between atoms: _29  and  _31
REMARK   13  A    between atoms: _31  and  _32
REMARK   14  A    between atoms: _31  and  _34
REMARK   15  A    between atoms: _34  and  _35
REMARK   16  A    between atoms: _37  and  _39
REMARK   17  A    between atoms: _39  and  _40
REMARK   18  A    between atoms: _39  and  _42
REMARK   19  A    between atoms: _42  and  _43
REMARK   20  A    between atoms: _48  and  _50
REMARK   21  A    between atoms: _50  and  _51
REMARK   22  A    between atoms: _54  and  _56
REMARK   23  A    between atoms: _56  and  _57
REMARK   24  A    between atoms: _56  and  _59
REMARK   25  A    between atoms: _62  and  _64
REMARK   26  A    between atoms: _64  and  _65
REMARK   27  A    between atoms: _64  and  _67
REMARK   28  A    between atoms: _67  and  _68
REMARK   29  A    between atoms: _73  and  _75
REMARK   30  A    between atoms: _75  and  _76
REMARK   31  A    between atoms: _75  and  _78
REMARK   32  A    between atoms: _78  and  _79
REMARK   33  A    between atoms: _79  and  _80
REMARK   34  A    between atoms: _80  and  _81
REMARK   35  A    between atoms: _90  and  _92
REMARK   36  A    between atoms: _92  and  _93
REMARK   37  A    between atoms: _92  and  _95
REMARK   38  A    between atoms: _95  and  _96
REMARK   39  A    between atoms: _99  and  _101
REMARK   40  A    between atoms: _101  and  _102
REMARK   41  A    between atoms: _101  and  _104
REMARK   42  A    between atoms: _104  and  _105
REMARK   43  A    between atoms: _110  and  _112
REMARK   44  A    between atoms: _112  and  _113
REMARK   45  A    between atoms: _112  and  _115
REMARK   46  A    between atoms: _115  and  _116
REMARK   47  A    between atoms: _119  and  _121
REMARK   48  A    between atoms: _121  and  _122
REMARK   49  A    between atoms: _121  and  _124
REMARK   50  A    between atoms: _124  and  _125
REMARK   51  A    between atoms: _128  and  _130
REMARK   52  A    between atoms: _130  and  _131
REMARK   53  A    between atoms: _130  and  _133
REMARK   54  A    between atoms: _133  and  _134
REMARK   55  A    between atoms: _139  and  _141
REMARK   56  A    between atoms: _141  and  _142
REMARK   57  A    between atoms: _141  and  _144
REMARK   58  A    between atoms: _144  and  _145
REMARK   59  A    between atoms: _148  and  _150
REMARK   60  A    between atoms: _150  and  _151
REMARK   61  A    between atoms: _150  and  _153
REMARK   62  A    between atoms: _153  and  _154
REMARK   63  A    between atoms: _157  and  _159
REMARK   64  A    between atoms: _159  and  _160
REMARK   65  A    between atoms: _162  and  _164
REMARK   66  A    between atoms: _164  and  _165
REMARK   67  A    between atoms: _168  and  _170
REMARK   68  A    between atoms: _170  and  _171
REMARK   69  A    between atoms: _173  and  _175
REMARK   70  A    between atoms: _175  and  _176
REMARK   71  A    between atoms: _179  and  _181
REMARK   72  A    between atoms: _181  and  _182
REMARK   73  A    between atoms: _181  and  _184
REMARK   74  A    between atoms: _184  and  _185
REMARK   75  A    between atoms: _185  and  _186
REMARK   76  A    between atoms: _186  and  _187
REMARK   77  A    between atoms: _187  and  _188
REMARK   78  A    between atoms: _193  and  _194
REMARK   79  A    between atoms: _199  and  _201
REMARK   80  A    between atoms: _201  and  _202
REMARK   81  A    between atoms: _201  and  _204
REMARK   82  A    between atoms: _207  and  _209
REMARK   83  A    between atoms: _209  and  _210
REMARK   84  A    between atoms: _212  and  _214
REMARK   85  A    between atoms: _214  and  _215
REMARK   86  A    between atoms: _214  and  _217
REMARK   87  A    between atoms: _217  and  _218
REMARK   88  A    between atoms: _220  and  _222
REMARK   89  A    between atoms: _222  and  _223
REMARK   90  A    between atoms: _226  and  _228
REMARK   91  A    between atoms: _228  and  _229
REMARK   92  A    between atoms: _231  and  _233
REMARK   93  A    between atoms: _233  and  _234
REMARK   94  A    between atoms: _233  and  _236
REMARK   95  A    between atoms: _236  and  _237
REMARK   96  A    between atoms: _240  and  _242
REMARK   97  A    between atoms: _242  and  _243
REMARK   98  A    between atoms: _245  and  _247
REMARK   99  A    between atoms: _247  and  _248
REMARK  100  A    between atoms: _250  and  _252
REMARK  101  A    between atoms: _252  and  _253
REMARK  102  A    between atoms: _255  and  _257
REMARK  103  A    between atoms: _257  and  _258
REMARK  104  A    between atoms: _257  and  _260
REMARK  105  A    between atoms: _260  and  _261
REMARK  106  A    between atoms: _264  and  _266
REMARK  107  A    between atoms: _266  and  _267
REMARK  108  A    between atoms: _269  and  _271
REMARK  109  A    between atoms: _271  and  _272
REMARK  110  A    between atoms: _271  and  _274
REMARK  111  A    between atoms: _274  and  _275
REMARK  112  A    between atoms: _278  and  _280
REMARK  113  A    between atoms: _280  and  _281
REMARK  114  A    between atoms: _283  and  _285
REMARK  115  A    between atoms: _285  and  _286
REMARK  116  A    between atoms: _289  and  _291
REMARK  117  A    between atoms: _291  and  _292
REMARK  118  A    between atoms: _295  and  _297
REMARK  119  A    between atoms: _297  and  _298
REMARK  120  A    between atoms: _297  and  _300
REMARK  121  A    between atoms: _300  and  _301
REMARK  122  A    between atoms: _304  and  _306
REMARK  123  A    between atoms: _306  and  _307
REMARK  124  A    between atoms: _306  and  _309
REMARK  125  A    between atoms: _309  and  _310
REMARK  126  A    between atoms: _314  and  _315
REMARK  127  A    between atoms: _320  and  _322
REMARK  128  A    between atoms: _322  and  _323
REMARK  129  A    between atoms: _322  and  _325
REMARK  130  A    between atoms: _325  and  _326
REMARK  131  A    between atoms: _332  and  _334
REMARK  132  A    between atoms: _334  and  _335
REMARK  133  A    between atoms: _334  and  _337
REMARK  134  A    between atoms: _337  and  _338
REMARK  135  A    between atoms: _344  and  _346
REMARK  136  A    between atoms: _346  and  _347
REMARK  137  A    between atoms: _346  and  _349
REMARK  138  A    between atoms: _349  and  _350
REMARK  139  A    between atoms: _350  and  _351
REMARK  140  A    between atoms: _354  and  _356
REMARK  141  A    between atoms: _356  and  _357
REMARK  142  A    between atoms: _356  and  _359
REMARK  143  A    between atoms: _359  and  _360
REMARK  144  A    between atoms: _360  and  _361
REMARK  145  A    between atoms: _361  and  _362
REMARK  146  A    between atoms: _362  and  _363
REMARK  147  A    between atoms: _367  and  _369
REMARK  148  A    between atoms: _369  and  _370
REMARK  149  A    between atoms: _369  and  _372
REMARK  150  A    between atoms: _372  and  _373
REMARK  151  A    between atoms: _373  and  _374
REMARK  152  A    between atoms: _376  and  _378
REMARK  153  A    between atoms: _378  and  _379
REMARK  154  A    between atoms: _378  and  _381
REMARK  155  A    between atoms: _381  and  _382
REMARK  156  A    between atoms: _382  and  _383
REMARK  157  A    between atoms: _383  and  _384
REMARK  158  A    between atoms: _384  and  _385
REMARK  159  A    between atoms: _389  and  _391
REMARK  160  A    between atoms: _391  and  _392
REMARK  161  A    between atoms: _395  and  _397
REMARK  162  A    between atoms: _397  and  _398
REMARK  163  A    between atoms: _397  and  _400
REMARK  164  A    between atoms: _400  and  _401
REMARK  165  A    between atoms: _406  and  _408
REMARK  166  A    between atoms: _408  and  _409
REMARK  167  A    between atoms: _408  and  _411
REMARK  168  A    between atoms: _411  and  _412
REMARK  169  A    between atoms: _415  and  _417
REMARK  170  A    between atoms: _417  and  _418
REMARK  171  A    between atoms: _417  and  _420
REMARK  172  A    between atoms: _420  and  _421
REMARK  173  A    between atoms: _424  and  _426
REMARK  174  A    between atoms: _426  and  _427
REMARK  175  A    between atoms: _426  and  _429
REMARK  176  A    between atoms: _429  and  _430
REMARK  177  A    between atoms: _430  and  _431
REMARK  178  A    between atoms: _431  and  _432
REMARK  179  A    between atoms: _432  and  _433
REMARK  180  A    between atoms: _437  and  _439
REMARK  181  A    between atoms: _439  and  _440
REMARK  182  A    between atoms: _443  and  _445
REMARK  183  A    between atoms: _445  and  _446
REMARK  184  A    between atoms: _445  and  _448
REMARK  185  A    between atoms: _448  and  _449
REMARK  186  A    between atoms: _455  and  _457
REMARK  187  A    between atoms: _457  and  _458
REMARK  188  A    between atoms: _457  and  _460
REMARK  189  A    between atoms: _461  and  _462
REMARK  190  A    between atoms: _462  and  _463
REMARK  191  A    between atoms: _463  and  _464
REMARK  192  A    between atoms: _468  and  _470
REMARK  193  A    between atoms: _470  and  _471
REMARK  194  A    between atoms: _470  and  _473
REMARK  195  A    between atoms: _474  and  _475
REMARK  196  A    between atoms: _478  and  _480
REMARK  197  A    between atoms: _480  and  _481
REMARK  198  A    between atoms: _480  and  _483
REMARK  199  A    between atoms: _486  and  _488
REMARK  200  A    between atoms: _488  and  _489
REMARK  201  A    between atoms: _488  and  _491
REMARK  202  A    between atoms: _491  and  _492
REMARK  203  A    between atoms: _495  and  _497
REMARK  204  A    between atoms: _497  and  _498
REMARK  205  A    between atoms: _497  and  _500
REMARK  206  A    between atoms: _500  and  _501
REMARK  207  A    between atoms: _503  and  _505
REMARK  208  A    between atoms: _505  and  _506
REMARK  209  A    between atoms: _505  and  _508
REMARK  210  A    between atoms: _511  and  _513
REMARK  211  A    between atoms: _513  and  _514
REMARK  212  A    between atoms: _513  and  _516
REMARK  213  A    between atoms: _516  and  _517
REMARK  214  A    between atoms: _520  and  _522
REMARK  215  A    between atoms: _522  and  _523
REMARK  216  A    between atoms: _522  and  _525
REMARK  217  A    between atoms: _525  and  _526
REMARK                            x       y       z     vdW  Elec       q    Type
REMARK                         _______ _______ _______ _____ _____    ______ ____
ROOT
ATOM      1  O   HOH     1     -11.115   0.283  13.749  0.00  0.00    +0.000 OA
ENDROOT
TORSDOF 0
REMARK  Name = ../refined-set-2016/2r75/2r75_pocket.pdb
REMARK  217 active torsions:
REMARK  status: ('A' for Active; 'I' for Inactive)
REMARK    1  A    between atoms: _1  and  _3
REMARK    2  A    between atoms: _3  and  _4
REMARK    3  A    between atoms: _3  and  _6
REMARK    4  A    between atoms: _9  and  _11
REMARK    5  A    between atoms: _11  and  _12
REMARK    6  A    between atoms: _14  and  _16
REMARK    7  A    between atoms: _16  and  _17
REMARK    8  A    between atoms: _19  and  _21
REMARK    9  A    between atoms: _21  and  _22
REMARK   10  A    between atoms: _24  and  _26
REMARK   11  A    between atoms: _26  and  _27
REMARK   12  A    between atoms: _29  and  _31
REMARK   13  A    between atoms: _31  and  _32
REMARK   14  A    between atoms: _31  and  _34
REMARK   15  A    between atoms: _34  and  _35
REMARK   16  A    between atoms: _37  and  _39
REMARK   17  A    between atoms: _39  and  _40
REMARK   18  A    between atoms: _39  and  _42
REMARK   19  A    between atoms: _42  and  _43
REMARK   20  A    between atoms: _48  and  _50
REMARK   21  A    between atoms: _50  and  _51
REMARK   22  A    between atoms: _54  and  _56
REMARK   23  A    between atoms: _56  and  _57
REMARK   24  A    between atoms: _56  and  _59
REMARK   25  A    between atoms: _62  and  _64
REMARK   26  A    between atoms: _64  and  _65
REMARK   27  A    between atoms: _64  and  _67
REMARK   28  A    between atoms: _67  and  _68
REMARK   29  A    between atoms: _73  and  _75
REMARK   30  A    between atoms: _75  and  _76
REMARK   31  A    between atoms: _75  and  _78
REMARK   32  A    between atoms: _78  and  _79
REMARK   33  A    between atoms: _79  and  _80
REMARK   34  A    between atoms: _80  and  _81
REMARK   35  A    between atoms: _90  and  _92
REMARK   36  A    between atoms: _92  and  _93
REMARK   37  A    between atoms: _92  and  _95
REMARK   38  A    between atoms: _95  and  _96
REMARK   39  A    between atoms: _99  and  _101
REMARK   40  A    between atoms: _101  and  _102
REMARK   41  A    between atoms: _101  and  _104
REMARK   42  A    between atoms: _104  and  _105
REMARK   43  A    between atoms: _110  and  _112
REMARK   44  A    between atoms: _112  and  _113
REMARK   45  A    between atoms: _112  and  _115
REMARK   46  A    between atoms: _115  and  _116
REMARK   47  A    between atoms: _119  and  _121
REMARK   48  A    between atoms: _121  and  _122
REMARK   49  A    between atoms: _121  and  _124
REMARK   50  A    between atoms: _124  and  _125
REMARK   51  A    between atoms: _128  and  _130
REMARK   52  A    between atoms: _130  and  _131
REMARK   53  A    between atoms: _130  and  _133
REMARK   54  A    between atoms: _133  and  _134
REMARK   55  A    between atoms: _139  and  _141
REMARK   56  A    between atoms: _141  and  _142
REMARK   57  A    between atoms: _141  and  _144
REMARK   58  A    between atoms: _144  and  _145
REMARK   59  A    between atoms: _148  and  _150
REMARK   60  A    between atoms: _150  and  _151
REMARK   61  A    between atoms: _150  and  _153
REMARK   62  A    between atoms: _153  and  _154
REMARK   63  A    between atoms: _157  and  _159
REMARK   64  A    between atoms: _159  and  _160
REMARK   65  A    between atoms: _162  and  _164
REMARK   66  A    between atoms: _164  and  _165
REMARK   67  A    between atoms: _168  and  _170
REMARK   68  A    between atoms: _170  and  _171
REMARK   69  A    between atoms: _173  and  _175
REMARK   70  A    between atoms: _175  and  _176
REMARK   71  A    between atoms: _179  and  _181
REMARK   72  A    between atoms: _181  and  _182
REMARK   73  A    between atoms: _181  and  _184
REMARK   74  A    between atoms: _184  and  _185
REMARK   75  A    between atoms: _185  and  _186
REMARK   76  A    between atoms: _186  and  _187
REMARK   77  A    between atoms: _187  and  _188
REMARK   78  A    between atoms: _193  and  _194
REMARK   79  A    between atoms: _199  and  _201
REMARK   80  A    between atoms: _201  and  _202
REMARK   81  A    between atoms: _201  and  _204
REMARK   82  A    between atoms: _207  and  _209
REMARK   83  A    between atoms: _209  and  _210
REMARK   84  A    between atoms: _212  and  _214
REMARK   85  A    between atoms: _214  and  _215
REMARK   86  A    between atoms: _214  and  _217
REMARK   87  A    between atoms: _217  and  _218
REMARK   88  A    between atoms: _220  and  _222
REMARK   89  A    between atoms: _222  and  _223
REMARK   90  A    between atoms: _226  and  _228
REMARK   91  A    between atoms: _228  and  _229
REMARK   92  A    between atoms: _231  and  _233
REMARK   93  A    between atoms: _233  and  _234
REMARK   94  A    between atoms: _233  and  _236
REMARK   95  A    between atoms: _236  and  _237
REMARK   96  A    between atoms: _240  and  _242
REMARK   97  A    between atoms: _242  and  _243
REMARK   98  A    between atoms: _245  and  _247
REMARK   99  A    between atoms: _247  and  _248
REMARK  100  A    between atoms: _250  and  _252
REMARK  101  A    between atoms: _252  and  _253
REMARK  102  A    between atoms: _255  and  _257
REMARK  103  A    between atoms: _257  and  _258
REMARK  104  A    between atoms: _257  and  _260
REMARK  105  A    between atoms: _260  and  _261
REMARK  106  A    between atoms: _264  and  _266
REMARK  107  A    between atoms: _266  and  _267
REMARK  108  A    between atoms: _269  and  _271
REMARK  109  A    between atoms: _271  and  _272
REMARK  110  A    between atoms: _271  and  _274
REMARK  111  A    between atoms: _274  and  _275
REMARK  112  A    between atoms: _278  and  _280
REMARK  113  A    between atoms: _280  and  _281
REMARK  114  A    between atoms: _283  and  _285
REMARK  115  A    between atoms: _285  and  _286
REMARK  116  A    between atoms: _289  and  _291
REMARK  117  A    between atoms: _291  and  _292
REMARK  118  A    between atoms: _295  and  _297
REMARK  119  A    between atoms: _297  and  _298
REMARK  120  A    between atoms: _297  and  _300
REMARK  121  A    between atoms: _300  and  _301
REMARK  122  A    between atoms: _304  and  _306
REMARK  123  A    between atoms: _306  and  _307
REMARK  124  A    between atoms: _306  and  _309
REMARK  125  A    between atoms: _309  and  _310
REMARK  126  A    between atoms: _314  and  _315
REMARK  127  A    between atoms: _320  and  _322
REMARK  128  A    between atoms: _322  and  _323
REMARK  129  A    between atoms: _322  and  _325
REMARK  130  A    between atoms: _325  and  _326
REMARK  131  A    between atoms: _332  and  _334
REMARK  132  A    between atoms: _334  and  _335
REMARK  133  A    between atoms: _334  and  _337
REMARK  134  A    between atoms: _337  and  _338
REMARK  135  A    between atoms: _344  and  _346
REMARK  136  A    between atoms: _346  and  _347
REMARK  137  A    between atoms: _346  and  _349
REMARK  138  A    between atoms: _349  and  _350
REMARK  139  A    between atoms: _350  and  _351
REMARK  140  A    between atoms: _354  and  _356
REMARK  141  A    between atoms: _356  and  _357
REMARK  142  A    between atoms: _356  and  _359
REMARK  143  A    between atoms: _359  and  _360
REMARK  144  A    between atoms: _360  and  _361
REMARK  145  A    between atoms: _361  and  _362
REMARK  146  A    between atoms: _362  and  _363
REMARK  147  A    between atoms: _367  and  _369
REMARK  148  A    between atoms: _369  and  _370
REMARK  149  A    between atoms: _369  and  _372
REMARK  150  A    between atoms: _372  and  _373
REMARK  151  A    between atoms: _373  and  _374
REMARK  152  A    between atoms: _376  and  _378
REMARK  153  A    between atoms: _378  and  _379
REMARK  154  A    between atoms: _378  and  _381
REMARK  155  A    between atoms: _381  and  _382
REMARK  156  A    between atoms: _382  and  _383
REMARK  157  A    between atoms: _383  and  _384
REMARK  158  A    between atoms: _384  and  _385
REMARK  159  A    between atoms: _389  and  _391
REMARK  160  A    between atoms: _391  and  _392
REMARK  161  A    between atoms: _395  and  _397
REMARK  162  A    between atoms: _397  and  _398
REMARK  163  A    between atoms: _397  and  _400
REMARK  164  A    between atoms: _400  and  _401
REMARK  165  A    between atoms: _406  and  _408
REMARK  166  A    between atoms: _408  and  _409
REMARK  167  A    between atoms: _408  and  _411
REMARK  168  A    between atoms: _411  and  _412
REMARK  169  A    between atoms: _415  and  _417
REMARK  170  A    between atoms: _417  and  _418
REMARK  171  A    between atoms: _417  and  _420
REMARK  172  A    between atoms: _420  and  _421
REMARK  173  A    between atoms: _424  and  _426
REMARK  174  A    between atoms: _426  and  _427
REMARK  175  A    between atoms: _426  and  _429
REMARK  176  A    between atoms: _429  and  _430
REMARK  177  A    between atoms: _430  and  _431
REMARK  178  A    between atoms: _431  and  _432
REMARK  179  A    between atoms: _432  and  _433
REMARK  180  A    between atoms: _437  and  _439
REMARK  181  A    between atoms: _439  and  _440
REMARK  182  A    between atoms: _443  and  _445
REMARK  183  A    between atoms: _445  and  _446
REMARK  184  A    between atoms: _445  and  _448
REMARK  185  A    between atoms: _448  and  _449
REMARK  186  A    between atoms: _455  and  _457
REMARK  187  A    between atoms: _457  and  _458
REMARK  188  A    between atoms: _457  and  _460
REMARK  189  A    between atoms: _461  and  _462
REMARK  190  A    between atoms: _462  and  _463
REMARK  191  A    between atoms: _463  and  _464
REMARK  192  A    between atoms: _468  and  _470
REMARK  193  A    between atoms: _470  and  _471
REMARK  194  A    between atoms: _470  and  _473
REMARK  195  A    between atoms: _474  and  _475
REMARK  196  A    between atoms: _478  and  _480
REMARK  197  A    between atoms: _480  and  _481
REMARK  198  A    between atoms: _480  and  _483
REMARK  199  A    between atoms: _486  and  _488
REMARK  200  A    between atoms: _488  and  _489
REMARK  201  A    between atoms: _488  and  _491
REMARK  202  A    between atoms: _491  and  _492
REMARK  203  A    between atoms: _495  and  _497
REMARK  204  A    between atoms: _497  and  _498
REMARK  205  A    between atoms: _497  and  _500
REMARK  206  A    between atoms: _500  and  _501
REMARK  207  A    between atoms: _503  and  _505
REMARK  208  A    between atoms: _505  and  _506
REMARK  209  A    between atoms: _505  and  _508
REMARK  210  A    between atoms: _511  and  _513
REMARK  211  A    between atoms: _513  and  _514
REMARK  212  A    between atoms: _513  and  _516
REMARK  213  A    between atoms: _516  and  _517
REMARK  214  A    between atoms: _520  and  _522
REMARK  215  A    between atoms: _522  and  _523
REMARK  216  A    between atoms: _522  and  _525
REMARK  217  A    between atoms: _525  and  _526
REMARK                            x       y       z     vdW  Elec       q    Type
REMARK                         _______ _______ _______ _____ _____    ______ ____
ROOT
ATOM      1  O   HOH     1     -11.119   5.795  10.915  0.00  0.00    +0.000 OA
ENDROOT
TORSDOF 0
REMARK  Name = ../refined-set-2016/2r75/2r75_pocket.pdb
REMARK  217 active torsions:
REMARK  status: ('A' for Active; 'I' for Inactive)
REMARK    1  A    between atoms: _1  and  _3
REMARK    2  A    between atoms: _3  and  _4
REMARK    3  A    between atoms: _3  and  _6
REMARK    4  A    between atoms: _9  and  _11
REMARK    5  A    between atoms: _11  and  _12
REMARK    6  A    between atoms: _14  and  _16
REMARK    7  A    between atoms: _16  and  _17
REMARK    8  A    between atoms: _19  and  _21
REMARK    9  A    between atoms: _21  and  _22
REMARK   10  A    between atoms: _24  and  _26
REMARK   11  A    between atoms: _26  and  _27
REMARK   12  A    between atoms: _29  and  _31
REMARK   13  A    between atoms: _31  and  _32
REMARK   14  A    between atoms: _31  and  _34
REMARK   15  A    between atoms: _34  and  _35
REMARK   16  A    between atoms: _37  and  _39
REMARK   17  A    between atoms: _39  and  _40
REMARK   18  A    between atoms: _39  and  _42
REMARK   19  A    between atoms: _42  and  _43
REMARK   20  A    between atoms: _48  and  _50
REMARK   21  A    between atoms: _50  and  _51
REMARK   22  A    between atoms: _54  and  _56
REMARK   23  A    between atoms: _56  and  _57
REMARK   24  A    between atoms: _56  and  _59
REMARK   25  A    between atoms: _62  and  _64
REMARK   26  A    between atoms: _64  and  _65
REMARK   27  A    between atoms: _64  and  _67
REMARK   28  A    between atoms: _67  and  _68
REMARK   29  A    between atoms: _73  and  _75
REMARK   30  A    between atoms: _75  and  _76
REMARK   31  A    between atoms: _75  and  _78
REMARK   32  A    between atoms: _78  and  _79
REMARK   33  A    between atoms: _79  and  _80
REMARK   34  A    between atoms: _80  and  _81
REMARK   35  A    between atoms: _90  and  _92
REMARK   36  A    between atoms: _92  and  _93
REMARK   37  A    between atoms: _92  and  _95
REMARK   38  A    between atoms: _95  and  _96
REMARK   39  A    between atoms: _99  and  _101
REMARK   40  A    between atoms: _101  and  _102
REMARK   41  A    between atoms: _101  and  _104
REMARK   42  A    between atoms: _104  and  _105
REMARK   43  A    between atoms: _110  and  _112
REMARK   44  A    between atoms: _112  and  _113
REMARK   45  A    between atoms: _112  and  _115
REMARK   46  A    between atoms: _115  and  _116
REMARK   47  A    between atoms: _119  and  _121
REMARK   48  A    between atoms: _121  and  _122
REMARK   49  A    between atoms: _121  and  _124
REMARK   50  A    between atoms: _124  and  _125
REMARK   51  A    between atoms: _128  and  _130
REMARK   52  A    between atoms: _130  and  _131
REMARK   53  A    between atoms: _130  and  _133
REMARK   54  A    between atoms: _133  and  _134
REMARK   55  A    between atoms: _139  and  _141
REMARK   56  A    between atoms: _141  and  _142
REMARK   57  A    between atoms: _141  and  _144
REMARK   58  A    between atoms: _144  and  _145
REMARK   59  A    between atoms: _148  and  _150
REMARK   60  A    between atoms: _150  and  _151
REMARK   61  A    between atoms: _150  and  _153
REMARK   62  A    between atoms: _153  and  _154
REMARK   63  A    between atoms: _157  and  _159
REMARK   64  A    between atoms: _159  and  _160
REMARK   65  A    between atoms: _162  and  _164
REMARK   66  A    between atoms: _164  and  _165
REMARK   67  A    between atoms: _168  and  _170
REMARK   68  A    between atoms: _170  and  _171
REMARK   69  A    between atoms: _173  and  _175
REMARK   70  A    between atoms: _175  and  _176
REMARK   71  A    between atoms: _179  and  _181
REMARK   72  A    between atoms: _181  and  _182
REMARK   73  A    between atoms: _181  and  _184
REMARK   74  A    between atoms: _184  and  _185
REMARK   75  A    between atoms: _185  and  _186
REMARK   76  A    between atoms: _186  and  _187
REMARK   77  A    between atoms: _187  and  _188
REMARK   78  A    between atoms: _193  and  _194
REMARK   79  A    between atoms: _199  and  _201
REMARK   80  A    between atoms: _201  and  _202
REMARK   81  A    between atoms: _201  and  _204
REMARK   82  A    between atoms: _207  and  _209
REMARK   83  A    between atoms: _209  and  _210
REMARK   84  A    between atoms: _212  and  _214
REMARK   85  A    between atoms: _214  and  _215
REMARK   86  A    between atoms: _214  and  _217
REMARK   87  A    between atoms: _217  and  _218
REMARK   88  A    between atoms: _220  and  _222
REMARK   89  A    between atoms: _222  and  _223
REMARK   90  A    between atoms: _226  and  _228
REMARK   91  A    between atoms: _228  and  _229
REMARK   92  A    between atoms: _231  and  _233
REMARK   93  A    between atoms: _233  and  _234
REMARK   94  A    between atoms: _233  and  _236
REMARK   95  A    between atoms: _236  and  _237
REMARK   96  A    between atoms: _240  and  _242
REMARK   97  A    between atoms: _242  and  _243
REMARK   98  A    between atoms: _245  and  _247
REMARK   99  A    between atoms: _247  and  _248
REMARK  100  A    between atoms: _250  and  _252
REMARK  101  A    between atoms: _252  and  _253
REMARK  102  A    between atoms: _255  and  _257
REMARK  103  A    between atoms: _257  and  _258
REMARK  104  A    between atoms: _257  and  _260
REMARK  105  A    between atoms: _260  and  _261
REMARK  106  A    between atoms: _264  and  _266
REMARK  107  A    between atoms: _266  and  _267
REMARK  108  A    between atoms: _269  and  _271
REMARK  109  A    between atoms: _271  and  _272
REMARK  110  A    between atoms: _271  and  _274
REMARK  111  A    between atoms: _274  and  _275
REMARK  112  A    between atoms: _278  and  _280
REMARK  113  A    between atoms: _280  and  _281
REMARK  114  A    between atoms: _283  and  _285
REMARK  115  A    between atoms: _285  and  _286
REMARK  116  A    between atoms: _289  and  _291
REMARK  117  A    between atoms: _291  and  _292
REMARK  118  A    between atoms: _295  and  _297
REMARK  119  A    between atoms: _297  and  _298
REMARK  120  A    between atoms: _297  and  _300
REMARK  121  A    between atoms: _300  and  _301
REMARK  122  A    between atoms: _304  and  _306
REMARK  123  A    between atoms: _306  and  _307
REMARK  124  A    between atoms: _306  and  _309
REMARK  125  A    between atoms: _309  and  _310
REMARK  126  A    between atoms: _314  and  _315
REMARK  127  A    between atoms: _320  and  _322
REMARK  128  A    between atoms: _322  and  _323
REMARK  129  A    between atoms: _322  and  _325
REMARK  130  A    between atoms: _325  and  _326
REMARK  131  A    between atoms: _332  and  _334
REMARK  132  A    between atoms: _334  and  _335
REMARK  133  A    between atoms: _334  and  _337
REMARK  134  A    between atoms: _337  and  _338
REMARK  135  A    between atoms: _344  and  _346
REMARK  136  A    between atoms: _346  and  _347
REMARK  137  A    between atoms: _346  and  _349
REMARK  138  A    between atoms: _349  and  _350
REMARK  139  A    between atoms: _350  and  _351
REMARK  140  A    between atoms: _354  and  _356
REMARK  141  A    between atoms: _356  and  _357
REMARK  142  A    between atoms: _356  and  _359
REMARK  143  A    between atoms: _359  and  _360
REMARK  144  A    between atoms: _360  and  _361
REMARK  145  A    between atoms: _361  and  _362
REMARK  146  A    between atoms: _362  and  _363
REMARK  147  A    between atoms: _367  and  _369
REMARK  148  A    between atoms: _369  and  _370
REMARK  149  A    between atoms: _369  and  _372
REMARK  150  A    between atoms: _372  and  _373
REMARK  151  A    between atoms: _373  and  _374
REMARK  152  A    between atoms: _376  and  _378
REMARK  153  A    between atoms: _378  and  _379
REMARK  154  A    between atoms: _378  and  _381
REMARK  155  A    between atoms: _381  and  _382
REMARK  156  A    between atoms: _382  and  _383
REMARK  157  A    between atoms: _383  and  _384
REMARK  158  A    between atoms: _384  and  _385
REMARK  159  A    between atoms: _389  and  _391
REMARK  160  A    between atoms: _391  and  _392
REMARK  161  A    between atoms: _395  and  _397
REMARK  162  A    between atoms: _397  and  _398
REMARK  163  A    between atoms: _397  and  _400
REMARK  164  A    between atoms: _400  and  _401
REMARK  165  A    between atoms: _406  and  _408
REMARK  166  A    between atoms: _408  and  _409
REMARK  167  A    between atoms: _408  and  _411
REMARK  168  A    between atoms: _411  and  _412
REMARK  169  A    between atoms: _415  and  _417
REMARK  170  A    between atoms: _417  and  _418
REMARK  171  A    between atoms: _417  and  _420
REMARK  172  A    between atoms: _420  and  _421
REMARK  173  A    between atoms: _424  and  _426
REMARK  174  A    between atoms: _426  and  _427
REMARK  175  A    between atoms: _426  and  _429
REMARK  176  A    between atoms: _429  and  _430
REMARK  177  A    between atoms: _430  and  _431
REMARK  178  A    between atoms: _431  and  _432
REMARK  179  A    between atoms: _432  and  _433
REMARK  180  A    between atoms: _437  and  _439
REMARK  181  A    between atoms: _439  and  _440
REMARK  182  A    between atoms: _443  and  _445
REMARK  183  A    between atoms: _445  and  _446
REMARK  184  A    between atoms: _445  and  _448
REMARK  185  A    between atoms: _448  and  _449
REMARK  186  A    between atoms: _455  and  _457
REMARK  187  A    between atoms: _457  and  _458
REMARK  188  A    between atoms: _457  and  _460
REMARK  189  A    between atoms: _461  and  _462
REMARK  190  A    between atoms: _462  and  _463
REMARK  191  A    between atoms: _463  and  _464
REMARK  192  A    between atoms: _468  and  _470
REMARK  193  A    between atoms: _470  and  _471
REMARK  194  A    between atoms: _470  and  _473
REMARK  195  A    between atoms: _474  and  _475
REMARK  196  A    between atoms: _478  and  _480
REMARK  197  A    between atoms: _480  and  _481
REMARK  198  A    between atoms: _480  and  _483
REMARK  199  A    between atoms: _486  and  _488
REMARK  200  A    between atoms: _488  and  _489
REMARK  201  A    between atoms: _488  and  _491
REMARK  202  A    between atoms: _491  and  _492
REMARK  203  A    between atoms: _495  and  _497
REMARK  204  A    between atoms: _497  and  _498
REMARK  205  A    between atoms: _497  and  _500
REMARK  206  A    between atoms: _500  and  _501
REMARK  207  A    between atoms: _503  and  _505
REMARK  208  A    between atoms: _505  and  _506
REMARK  209  A    between atoms: _505  and  _508
REMARK  210  A    between atoms: _511  and  _513
REMARK  211  A    between atoms: _513  and  _514
REMARK  212  A    between atoms: _513  and  _516
REMARK  213  A    between atoms: _516  and  _517
REMARK  214  A    between atoms: _520  and  _522
REMARK  215  A    between atoms: _522  and  _523
REMARK  216  A    between atoms: _522  and  _525
REMARK  217  A    between atoms: _525  and  _526
REMARK                            x       y       z     vdW  Elec       q    Type
REMARK                         _______ _______ _______ _____ _____    ______ ____
ROOT
ATOM      1  O   HOH     1     -11.980   0.488  11.199  0.00  0.00    +0.000 OA
ENDROOT
TORSDOF 0
REMARK  Name = ../refined-set-2016/2r75/2r75_pocket.pdb
REMARK  217 active torsions:
REMARK  status: ('A' for Active; 'I' for Inactive)
REMARK    1  A    between atoms: _1  and  _3
REMARK    2  A    between atoms: _3  and  _4
REMARK    3  A    between atoms: _3  and  _6
REMARK    4  A    between atoms: _9  and  _11
REMARK    5  A    between atoms: _11  and  _12
REMARK    6  A    between atoms: _14  and  _16
REMARK    7  A    between atoms: _16  and  _17
REMARK    8  A    between atoms: _19  and  _21
REMARK    9  A    between atoms: _21  and  _22
REMARK   10  A    between atoms: _24  and  _26
REMARK   11  A    between atoms: _26  and  _27
REMARK   12  A    between atoms: _29  and  _31
REMARK   13  A    between atoms: _31  and  _32
REMARK   14  A    between atoms: _31  and  _34
REMARK   15  A    between atoms: _34  and  _35
REMARK   16  A    between atoms: _37  and  _39
REMARK   17  A    between atoms: _39  and  _40
REMARK   18  A    between atoms: _39  and  _42
REMARK   19  A    between atoms: _42  and  _43
REMARK   20  A    between atoms: _48  and  _50
REMARK   21  A    between atoms: _50  and  _51
REMARK   22  A    between atoms: _54  and  _56
REMARK   23  A    between atoms: _56  and  _57
REMARK   24  A    between atoms: _56  and  _59
REMARK   25  A    between atoms: _62  and  _64
REMARK   26  A    between atoms: _64  and  _65
REMARK   27  A    between atoms: _64  and  _67
REMARK   28  A    between atoms: _67  and  _68
REMARK   29  A    between atoms: _73  and  _75
REMARK   30  A    between atoms: _75  and  _76
REMARK   31  A    between atoms: _75  and  _78
REMARK   32  A    between atoms: _78  and  _79
REMARK   33  A    between atoms: _79  and  _80
REMARK   34  A    between atoms: _80  and  _81
REMARK   35  A    between atoms: _90  and  _92
REMARK   36  A    between atoms: _92  and  _93
REMARK   37  A    between atoms: _92  and  _95
REMARK   38  A    between atoms: _95  and  _96
REMARK   39  A    between atoms: _99  and  _101
REMARK   40  A    between atoms: _101  and  _102
REMARK   41  A    between atoms: _101  and  _104
REMARK   42  A    between atoms: _104  and  _105
REMARK   43  A    between atoms: _110  and  _112
REMARK   44  A    between atoms: _112  and  _113
REMARK   45  A    between atoms: _112  and  _115
REMARK   46  A    between atoms: _115  and  _116
REMARK   47  A    between atoms: _119  and  _121
REMARK   48  A    between atoms: _121  and  _122
REMARK   49  A    between atoms: _121  and  _124
REMARK   50  A    between atoms: _124  and  _125
REMARK   51  A    between atoms: _128  and  _130
REMARK   52  A    between atoms: _130  and  _131
REMARK   53  A    between atoms: _130  and  _133
REMARK   54  A    between atoms: _133  and  _134
REMARK   55  A    between atoms: _139  and  _141
REMARK   56  A    between atoms: _141  and  _142
REMARK   57  A    between atoms: _141  and  _144
REMARK   58  A    between atoms: _144  and  _145
REMARK   59  A    between atoms: _148  and  _150
REMARK   60  A    between atoms: _150  and  _151
REMARK   61  A    between atoms: _150  and  _153
REMARK   62  A    between atoms: _153  and  _154
REMARK   63  A    between atoms: _157  and  _159
REMARK   64  A    between atoms: _159  and  _160
REMARK   65  A    between atoms: _162  and  _164
REMARK   66  A    between atoms: _164  and  _165
REMARK   67  A    between atoms: _168  and  _170
REMARK   68  A    between atoms: _170  and  _171
REMARK   69  A    between atoms: _173  and  _175
REMARK   70  A    between atoms: _175  and  _176
REMARK   71  A    between atoms: _179  and  _181
REMARK   72  A    between atoms: _181  and  _182
REMARK   73  A    between atoms: _181  and  _184
REMARK   74  A    between atoms: _184  and  _185
REMARK   75  A    between atoms: _185  and  _186
REMARK   76  A    between atoms: _186  and  _187
REMARK   77  A    between atoms: _187  and  _188
REMARK   78  A    between atoms: _193  and  _194
REMARK   79  A    between atoms: _199  and  _201
REMARK   80  A    between atoms: _201  and  _202
REMARK   81  A    between atoms: _201  and  _204
REMARK   82  A    between atoms: _207  and  _209
REMARK   83  A    between atoms: _209  and  _210
REMARK   84  A    between atoms: _212  and  _214
REMARK   85  A    between atoms: _214  and  _215
REMARK   86  A    between atoms: _214  and  _217
REMARK   87  A    between atoms: _217  and  _218
REMARK   88  A    between atoms: _220  and  _222
REMARK   89  A    between atoms: _222  and  _223
REMARK   90  A    between atoms: _226  and  _228
REMARK   91  A    between atoms: _228  and  _229
REMARK   92  A    between atoms: _231  and  _233
REMARK   93  A    between atoms: _233  and  _234
REMARK   94  A    between atoms: _233  and  _236
REMARK   95  A    between atoms: _236  and  _237
REMARK   96  A    between atoms: _240  and  _242
REMARK   97  A    between atoms: _242  and  _243
REMARK   98  A    between atoms: _245  and  _247
REMARK   99  A    between atoms: _247  and  _248
REMARK  100  A    between atoms: _250  and  _252
REMARK  101  A    between atoms: _252  and  _253
REMARK  102  A    between atoms: _255  and  _257
REMARK  103  A    between atoms: _257  and  _258
REMARK  104  A    between atoms: _257  and  _260
REMARK  105  A    between atoms: _260  and  _261
REMARK  106  A    between atoms: _264  and  _266
REMARK  107  A    between atoms: _266  and  _267
REMARK  108  A    between atoms: _269  and  _271
REMARK  109  A    between atoms: _271  and  _272
REMARK  110  A    between atoms: _271  and  _274
REMARK  111  A    between atoms: _274  and  _275
REMARK  112  A    between atoms: _278  and  _280
REMARK  113  A    between atoms: _280  and  _281
REMARK  114  A    between atoms: _283  and  _285
REMARK  115  A    between atoms: _285  and  _286
REMARK  116  A    between atoms: _289  and  _291
REMARK  117  A    between atoms: _291  and  _292
REMARK  118  A    between atoms: _295  and  _297
REMARK  119  A    between atoms: _297  and  _298
REMARK  120  A    between atoms: _297  and  _300
REMARK  121  A    between atoms: _300  and  _301
REMARK  122  A    between atoms: _304  and  _306
REMARK  123  A    between atoms: _306  and  _307
REMARK  124  A    between atoms: _306  and  _309
REMARK  125  A    between atoms: _309  and  _310
REMARK  126  A    between atoms: _314  and  _315
REMARK  127  A    between atoms: _320  and  _322
REMARK  128  A    between atoms: _322  and  _323
REMARK  129  A    between atoms: _322  and  _325
REMARK  130  A    between atoms: _325  and  _326
REMARK  131  A    between atoms: _332  and  _334
REMARK  132  A    between atoms: _334  and  _335
REMARK  133  A    between atoms: _334  and  _337
REMARK  134  A    between atoms: _337  and  _338
REMARK  135  A    between atoms: _344  and  _346
REMARK  136  A    between atoms: _346  and  _347
REMARK  137  A    between atoms: _346  and  _349
REMARK  138  A    between atoms: _349  and  _350
REMARK  139  A    between atoms: _350  and  _351
REMARK  140  A    between atoms: _354  and  _356
REMARK  141  A    between atoms: _356  and  _357
REMARK  142  A    between atoms: _356  and  _359
REMARK  143  A    between atoms: _359  and  _360
REMARK  144  A    between atoms: _360  and  _361
REMARK  145  A    between atoms: _361  and  _362
REMARK  146  A    between atoms: _362  and  _363
REMARK  147  A    between atoms: _367  and  _369
REMARK  148  A    between atoms: _369  and  _370
REMARK  149  A    between atoms: _369  and  _372
REMARK  150  A    between atoms: _372  and  _373
REMARK  151  A    between atoms: _373  and  _374
REMARK  152  A    between atoms: _376  and  _378
REMARK  153  A    between atoms: _378  and  _379
REMARK  154  A    between atoms: _378  and  _381
REMARK  155  A    between atoms: _381  and  _382
REMARK  156  A    between atoms: _382  and  _383
REMARK  157  A    between atoms: _383  and  _384
REMARK  158  A    between atoms: _384  and  _385
REMARK  159  A    between atoms: _389  and  _391
REMARK  160  A    between atoms: _391  and  _392
REMARK  161  A    between atoms: _395  and  _397
REMARK  162  A    between atoms: _397  and  _398
REMARK  163  A    between atoms: _397  and  _400
REMARK  164  A    between atoms: _400  and  _401
REMARK  165  A    between atoms: _406  and  _408
REMARK  166  A    between atoms: _408  and  _409
REMARK  167  A    between atoms: _408  and  _411
REMARK  168  A    between atoms: _411  and  _412
REMARK  169  A    between atoms: _415  and  _417
REMARK  170  A    between atoms: _417  and  _418
REMARK  171  A    between atoms: _417  and  _420
REMARK  172  A    between atoms: _420  and  _421
REMARK  173  A    between atoms: _424  and  _426
REMARK  174  A    between atoms: _426  and  _427
REMARK  175  A    between atoms: _426  and  _429
REMARK  176  A    between atoms: _429  and  _430
REMARK  177  A    between atoms: _430  and  _431
REMARK  178  A    between atoms: _431  and  _432
REMARK  179  A    between atoms: _432  and  _433
REMARK  180  A    between atoms: _437  and  _439
REMARK  181  A    between atoms: _439  and  _440
REMARK  182  A    between atoms: _443  and  _445
REMARK  183  A    between atoms: _445  and  _446
REMARK  184  A    between atoms: _445  and  _448
REMARK  185  A    between atoms: _448  and  _449
REMARK  186  A    between atoms: _455  and  _457
REMARK  187  A    between atoms: _457  and  _458
REMARK  188  A    between atoms: _457  and  _460
REMARK  189  A    between atoms: _461  and  _462
REMARK  190  A    between atoms: _462  and  _463
REMARK  191  A    between atoms: _463  and  _464
REMARK  192  A    between atoms: _468  and  _470
REMARK  193  A    between atoms: _470  and  _471
REMARK  194  A    between atoms: _470  and  _473
REMARK  195  A    between atoms: _474  and  _475
REMARK  196  A    between atoms: _478  and  _480
REMARK  197  A    between atoms: _480  and  _481
REMARK  198  A    between atoms: _480  and  _483
REMARK  199  A    between atoms: _486  and  _488
REMARK  200  A    between atoms: _488  and  _489
REMARK  201  A    between atoms: _488  and  _491
REMARK  202  A    between atoms: _491  and  _492
REMARK  203  A    between atoms: _495  and  _497
REMARK  204  A    between atoms: _497  and  _498
REMARK  205  A    between atoms: _497  and  _500
REMARK  206  A    between atoms: _500  and  _501
REMARK  207  A    between atoms: _503  and  _505
REMARK  208  A    between atoms: _505  and  _506
REMARK  209  A    between atoms: _505  and  _508
REMARK  210  A    between atoms: _511  and  _513
REMARK  211  A    between atoms: _513  and  _514
REMARK  212  A    between atoms: _513  and  _516
REMARK  213  A    between atoms: _516  and  _517
REMARK  214  A    between atoms: _520  and  _522
REMARK  215  A    between atoms: _522  and  _523
REMARK  216  A    between atoms: _522  and  _525
REMARK  217  A    between atoms: _525  and  _526
REMARK                            x       y       z     vdW  Elec       q    Type
REMARK                         _______ _______ _______ _____ _____    ______ ____
ROOT
ATOM      1  O   HOH     1      -7.592  -0.022  19.056  0.00  0.00    +0.000 OA
ENDROOT
TORSDOF 0
REMARK  Name = ../refined-set-2016/2r75/2r75_pocket.pdb
REMARK  217 active torsions:
REMARK  status: ('A' for Active; 'I' for Inactive)
REMARK    1  A    between atoms: _1  and  _3
REMARK    2  A    between atoms: _3  and  _4
REMARK    3  A    between atoms: _3  and  _6
REMARK    4  A    between atoms: _9  and  _11
REMARK    5  A    between atoms: _11  and  _12
REMARK    6  A    between atoms: _14  and  _16
REMARK    7  A    between atoms: _16  and  _17
REMARK    8  A    between atoms: _19  and  _21
REMARK    9  A    between atoms: _21  and  _22
REMARK   10  A    between atoms: _24  and  _26
REMARK   11  A    between atoms: _26  and  _27
REMARK   12  A    between atoms: _29  and  _31
REMARK   13  A    between atoms: _31  and  _32
REMARK   14  A    between atoms: _31  and  _34
REMARK   15  A    between atoms: _34  and  _35
REMARK   16  A    between atoms: _37  and  _39
REMARK   17  A    between atoms: _39  and  _40
REMARK   18  A    between atoms: _39  and  _42
REMARK   19  A    between atoms: _42  and  _43
REMARK   20  A    between atoms: _48  and  _50
REMARK   21  A    between atoms: _50  and  _51
REMARK   22  A    between atoms: _54  and  _56
REMARK   23  A    between atoms: _56  and  _57
REMARK   24  A    between atoms: _56  and  _59
REMARK   25  A    between atoms: _62  and  _64
REMARK   26  A    between atoms: _64  and  _65
REMARK   27  A    between atoms: _64  and  _67
REMARK   28  A    between atoms: _67  and  _68
REMARK   29  A    between atoms: _73  and  _75
REMARK   30  A    between atoms: _75  and  _76
REMARK   31  A    between atoms: _75  and  _78
REMARK   32  A    between atoms: _78  and  _79
REMARK   33  A    between atoms: _79  and  _80
REMARK   34  A    between atoms: _80  and  _81
REMARK   35  A    between atoms: _90  and  _92
REMARK   36  A    between atoms: _92  and  _93
REMARK   37  A    between atoms: _92  and  _95
REMARK   38  A    between atoms: _95  and  _96
REMARK   39  A    between atoms: _99  and  _101
REMARK   40  A    between atoms: _101  and  _102
REMARK   41  A    between atoms: _101  and  _104
REMARK   42  A    between atoms: _104  and  _105
REMARK   43  A    between atoms: _110  and  _112
REMARK   44  A    between atoms: _112  and  _113
REMARK   45  A    between atoms: _112  and  _115
REMARK   46  A    between atoms: _115  and  _116
REMARK   47  A    between atoms: _119  and  _121
REMARK   48  A    between atoms: _121  and  _122
REMARK   49  A    between atoms: _121  and  _124
REMARK   50  A    between atoms: _124  and  _125
REMARK   51  A    between atoms: _128  and  _130
REMARK   52  A    between atoms: _130  and  _131
REMARK   53  A    between atoms: _130  and  _133
REMARK   54  A    between atoms: _133  and  _134
REMARK   55  A    between atoms: _139  and  _141
REMARK   56  A    between atoms: _141  and  _142
REMARK   57  A    between atoms: _141  and  _144
REMARK   58  A    between atoms: _144  and  _145
REMARK   59  A    between atoms: _148  and  _150
REMARK   60  A    between atoms: _150  and  _151
REMARK   61  A    between atoms: _150  and  _153
REMARK   62  A    between atoms: _153  and  _154
REMARK   63  A    between atoms: _157  and  _159
REMARK   64  A    between atoms: _159  and  _160
REMARK   65  A    between atoms: _162  and  _164
REMARK   66  A    between atoms: _164  and  _165
REMARK   67  A    between atoms: _168  and  _170
REMARK   68  A    between atoms: _170  and  _171
REMARK   69  A    between atoms: _173  and  _175
REMARK   70  A    between atoms: _175  and  _176
REMARK   71  A    between atoms: _179  and  _181
REMARK   72  A    between atoms: _181  and  _182
REMARK   73  A    between atoms: _181  and  _184
REMARK   74  A    between atoms: _184  and  _185
REMARK   75  A    between atoms: _185  and  _186
REMARK   76  A    between atoms: _186  and  _187
REMARK   77  A    between atoms: _187  and  _188
REMARK   78  A    between atoms: _193  and  _194
REMARK   79  A    between atoms: _199  and  _201
REMARK   80  A    between atoms: _201  and  _202
REMARK   81  A    between atoms: _201  and  _204
REMARK   82  A    between atoms: _207  and  _209
REMARK   83  A    between atoms: _209  and  _210
REMARK   84  A    between atoms: _212  and  _214
REMARK   85  A    between atoms: _214  and  _215
REMARK   86  A    between atoms: _214  and  _217
REMARK   87  A    between atoms: _217  and  _218
REMARK   88  A    between atoms: _220  and  _222
REMARK   89  A    between atoms: _222  and  _223
REMARK   90  A    between atoms: _226  and  _228
REMARK   91  A    between atoms: _228  and  _229
REMARK   92  A    between atoms: _231  and  _233
REMARK   93  A    between atoms: _233  and  _234
REMARK   94  A    between atoms: _233  and  _236
REMARK   95  A    between atoms: _236  and  _237
REMARK   96  A    between atoms: _240  and  _242
REMARK   97  A    between atoms: _242  and  _243
REMARK   98  A    between atoms: _245  and  _247
REMARK   99  A    between atoms: _247  and  _248
REMARK  100  A    between atoms: _250  and  _252
REMARK  101  A    between atoms: _252  and  _253
REMARK  102  A    between atoms: _255  and  _257
REMARK  103  A    between atoms: _257  and  _258
REMARK  104  A    between atoms: _257  and  _260
REMARK  105  A    between atoms: _260  and  _261
REMARK  106  A    between atoms: _264  and  _266
REMARK  107  A    between atoms: _266  and  _267
REMARK  108  A    between atoms: _269  and  _271
REMARK  109  A    between atoms: _271  and  _272
REMARK  110  A    between atoms: _271  and  _274
REMARK  111  A    between atoms: _274  and  _275
REMARK  112  A    between atoms: _278  and  _280
REMARK  113  A    between atoms: _280  and  _281
REMARK  114  A    between atoms: _283  and  _285
REMARK  115  A    between atoms: _285  and  _286
REMARK  116  A    between atoms: _289  and  _291
REMARK  117  A    between atoms: _291  and  _292
REMARK  118  A    between atoms: _295  and  _297
REMARK  119  A    between atoms: _297  and  _298
REMARK  120  A    between atoms: _297  and  _300
REMARK  121  A    between atoms: _300  and  _301
REMARK  122  A    between atoms: _304  and  _306
REMARK  123  A    between atoms: _306  and  _307
REMARK  124  A    between atoms: _306  and  _309
REMARK  125  A    between atoms: _309  and  _310
REMARK  126  A    between atoms: _314  and  _315
REMARK  127  A    between atoms: _320  and  _322
REMARK  128  A    between atoms: _322  and  _323
REMARK  129  A    between atoms: _322  and  _325
REMARK  130  A    between atoms: _325  and  _326
REMARK  131  A    between atoms: _332  and  _334
REMARK  132  A    between atoms: _334  and  _335
REMARK  133  A    between atoms: _334  and  _337
REMARK  134  A    between atoms: _337  and  _338
REMARK  135  A    between atoms: _344  and  _346
REMARK  136  A    between atoms: _346  and  _347
REMARK  137  A    between atoms: _346  and  _349
REMARK  138  A    between atoms: _349  and  _350
REMARK  139  A    between atoms: _350  and  _351
REMARK  140  A    between atoms: _354  and  _356
REMARK  141  A    between atoms: _356  and  _357
REMARK  142  A    between atoms: _356  and  _359
REMARK  143  A    between atoms: _359  and  _360
REMARK  144  A    between atoms: _360  and  _361
REMARK  145  A    between atoms: _361  and  _362
REMARK  146  A    between atoms: _362  and  _363
REMARK  147  A    between atoms: _367  and  _369
REMARK  148  A    between atoms: _369  and  _370
REMARK  149  A    between atoms: _369  and  _372
REMARK  150  A    between atoms: _372  and  _373
REMARK  151  A    between atoms: _373  and  _374
REMARK  152  A    between atoms: _376  and  _378
REMARK  153  A    between atoms: _378  and  _379
REMARK  154  A    between atoms: _378  and  _381
REMARK  155  A    between atoms: _381  and  _382
REMARK  156  A    between atoms: _382  and  _383
REMARK  157  A    between atoms: _383  and  _384
REMARK  158  A    between atoms: _384  and  _385
REMARK  159  A    between atoms: _389  and  _391
REMARK  160  A    between atoms: _391  and  _392
REMARK  161  A    between atoms: _395  and  _397
REMARK  162  A    between atoms: _397  and  _398
REMARK  163  A    between atoms: _397  and  _400
REMARK  164  A    between atoms: _400  and  _401
REMARK  165  A    between atoms: _406  and  _408
REMARK  166  A    between atoms: _408  and  _409
REMARK  167  A    between atoms: _408  and  _411
REMARK  168  A    between atoms: _411  and  _412
REMARK  169  A    between atoms: _415  and  _417
REMARK  170  A    between atoms: _417  and  _418
REMARK  171  A    between atoms: _417  and  _420
REMARK  172  A    between atoms: _420  and  _421
REMARK  173  A    between atoms: _424  and  _426
REMARK  174  A    between atoms: _426  and  _427
REMARK  175  A    between atoms: _426  and  _429
REMARK  176  A    between atoms: _429  and  _430
REMARK  177  A    between atoms: _430  and  _431
REMARK  178  A    between atoms: _431  and  _432
REMARK  179  A    between atoms: _432  and  _433
REMARK  180  A    between atoms: _437  and  _439
REMARK  181  A    between atoms: _439  and  _440
REMARK  182  A    between atoms: _443  and  _445
REMARK  183  A    between atoms: _445  and  _446
REMARK  184  A    between atoms: _445  and  _448
REMARK  185  A    between atoms: _448  and  _449
REMARK  186  A    between atoms: _455  and  _457
REMARK  187  A    between atoms: _457  and  _458
REMARK  188  A    between atoms: _457  and  _460
REMARK  189  A    between atoms: _461  and  _462
REMARK  190  A    between atoms: _462  and  _463
REMARK  191  A    between atoms: _463  and  _464
REMARK  192  A    between atoms: _468  and  _470
REMARK  193  A    between atoms: _470  and  _471
REMARK  194  A    between atoms: _470  and  _473
REMARK  195  A    between atoms: _474  and  _475
REMARK  196  A    between atoms: _478  and  _480
REMARK  197  A    between atoms: _480  and  _481
REMARK  198  A    between atoms: _480  and  _483
REMARK  199  A    between atoms: _486  and  _488
REMARK  200  A    between atoms: _488  and  _489
REMARK  201  A    between atoms: _488  and  _491
REMARK  202  A    between atoms: _491  and  _492
REMARK  203  A    between atoms: _495  and  _497
REMARK  204  A    between atoms: _497  and  _498
REMARK  205  A    between atoms: _497  and  _500
REMARK  206  A    between atoms: _500  and  _501
REMARK  207  A    between atoms: _503  and  _505
REMARK  208  A    between atoms: _505  and  _506
REMARK  209  A    between atoms: _505  and  _508
REMARK  210  A    between atoms: _511  and  _513
REMARK  211  A    between atoms: _513  and  _514
REMARK  212  A    between atoms: _513  and  _516
REMARK  213  A    between atoms: _516  and  _517
REMARK  214  A    between atoms: _520  and  _522
REMARK  215  A    between atoms: _522  and  _523
REMARK  216  A    between atoms: _522  and  _525
REMARK  217  A    between atoms: _525  and  _526
REMARK                            x       y       z     vdW  Elec       q    Type
REMARK                         _______ _______ _______ _____ _____    ______ ____
ROOT
ATOM      1  O   HOH     1      -3.050  -6.469  16.419  0.00  0.00    +0.000 OA
ENDROOT
TORSDOF 0
REMARK  Name = ../refined-set-2016/2r75/2r75_pocket.pdb
REMARK  217 active torsions:
REMARK  status: ('A' for Active; 'I' for Inactive)
REMARK    1  A    between atoms: _1  and  _3
REMARK    2  A    between atoms: _3  and  _4
REMARK    3  A    between atoms: _3  and  _6
REMARK    4  A    between atoms: _9  and  _11
REMARK    5  A    between atoms: _11  and  _12
REMARK    6  A    between atoms: _14  and  _16
REMARK    7  A    between atoms: _16  and  _17
REMARK    8  A    between atoms: _19  and  _21
REMARK    9  A    between atoms: _21  and  _22
REMARK   10  A    between atoms: _24  and  _26
REMARK   11  A    between atoms: _26  and  _27
REMARK   12  A    between atoms: _29  and  _31
REMARK   13  A    between atoms: _31  and  _32
REMARK   14  A    between atoms: _31  and  _34
REMARK   15  A    between atoms: _34  and  _35
REMARK   16  A    between atoms: _37  and  _39
REMARK   17  A    between atoms: _39  and  _40
REMARK   18  A    between atoms: _39  and  _42
REMARK   19  A    between atoms: _42  and  _43
REMARK   20  A    between atoms: _48  and  _50
REMARK   21  A    between atoms: _50  and  _51
REMARK   22  A    between atoms: _54  and  _56
REMARK   23  A    between atoms: _56  and  _57
REMARK   24  A    between atoms: _56  and  _59
REMARK   25  A    between atoms: _62  and  _64
REMARK   26  A    between atoms: _64  and  _65
REMARK   27  A    between atoms: _64  and  _67
REMARK   28  A    between atoms: _67  and  _68
REMARK   29  A    between atoms: _73  and  _75
REMARK   30  A    between atoms: _75  and  _76
REMARK   31  A    between atoms: _75  and  _78
REMARK   32  A    between atoms: _78  and  _79
REMARK   33  A    between atoms: _79  and  _80
REMARK   34  A    between atoms: _80  and  _81
REMARK   35  A    between atoms: _90  and  _92
REMARK   36  A    between atoms: _92  and  _93
REMARK   37  A    between atoms: _92  and  _95
REMARK   38  A    between atoms: _95  and  _96
REMARK   39  A    between atoms: _99  and  _101
REMARK   40  A    between atoms: _101  and  _102
REMARK   41  A    between atoms: _101  and  _104
REMARK   42  A    between atoms: _104  and  _105
REMARK   43  A    between atoms: _110  and  _112
REMARK   44  A    between atoms: _112  and  _113
REMARK   45  A    between atoms: _112  and  _115
REMARK   46  A    between atoms: _115  and  _116
REMARK   47  A    between atoms: _119  and  _121
REMARK   48  A    between atoms: _121  and  _122
REMARK   49  A    between atoms: _121  and  _124
REMARK   50  A    between atoms: _124  and  _125
REMARK   51  A    between atoms: _128  and  _130
REMARK   52  A    between atoms: _130  and  _131
REMARK   53  A    between atoms: _130  and  _133
REMARK   54  A    between atoms: _133  and  _134
REMARK   55  A    between atoms: _139  and  _141
REMARK   56  A    between atoms: _141  and  _142
REMARK   57  A    between atoms: _141  and  _144
REMARK   58  A    between atoms: _144  and  _145
REMARK   59  A    between atoms: _148  and  _150
REMARK   60  A    between atoms: _150  and  _151
REMARK   61  A    between atoms: _150  and  _153
REMARK   62  A    between atoms: _153  and  _154
REMARK   63  A    between atoms: _157  and  _159
REMARK   64  A    between atoms: _159  and  _160
REMARK   65  A    between atoms: _162  and  _164
REMARK   66  A    between atoms: _164  and  _165
REMARK   67  A    between atoms: _168  and  _170
REMARK   68  A    between atoms: _170  and  _171
REMARK   69  A    between atoms: _173  and  _175
REMARK   70  A    between atoms: _175  and  _176
REMARK   71  A    between atoms: _179  and  _181
REMARK   72  A    between atoms: _181  and  _182
REMARK   73  A    between atoms: _181  and  _184
REMARK   74  A    between atoms: _184  and  _185
REMARK   75  A    between atoms: _185  and  _186
REMARK   76  A    between atoms: _186  and  _187
REMARK   77  A    between atoms: _187  and  _188
REMARK   78  A    between atoms: _193  and  _194
REMARK   79  A    between atoms: _199  and  _201
REMARK   80  A    between atoms: _201  and  _202
REMARK   81  A    between atoms: _201  and  _204
REMARK   82  A    between atoms: _207  and  _209
REMARK   83  A    between atoms: _209  and  _210
REMARK   84  A    between atoms: _212  and  _214
REMARK   85  A    between atoms: _214  and  _215
REMARK   86  A    between atoms: _214  and  _217
REMARK   87  A    between atoms: _217  and  _218
REMARK   88  A    between atoms: _220  and  _222
REMARK   89  A    between atoms: _222  and  _223
REMARK   90  A    between atoms: _226  and  _228
REMARK   91  A    between atoms: _228  and  _229
REMARK   92  A    between atoms: _231  and  _233
REMARK   93  A    between atoms: _233  and  _234
REMARK   94  A    between atoms: _233  and  _236
REMARK   95  A    between atoms: _236  and  _237
REMARK   96  A    between atoms: _240  and  _242
REMARK   97  A    between atoms: _242  and  _243
REMARK   98  A    between atoms: _245  and  _247
REMARK   99  A    between atoms: _247  and  _248
REMARK  100  A    between atoms: _250  and  _252
REMARK  101  A    between atoms: _252  and  _253
REMARK  102  A    between atoms: _255  and  _257
REMARK  103  A    between atoms: _257  and  _258
REMARK  104  A    between atoms: _257  and  _260
REMARK  105  A    between atoms: _260  and  _261
REMARK  106  A    between atoms: _264  and  _266
REMARK  107  A    between atoms: _266  and  _267
REMARK  108  A    between atoms: _269  and  _271
REMARK  109  A    between atoms: _271  and  _272
REMARK  110  A    between atoms: _271  and  _274
REMARK  111  A    between atoms: _274  and  _275
REMARK  112  A    between atoms: _278  and  _280
REMARK  113  A    between atoms: _280  and  _281
REMARK  114  A    between atoms: _283  and  _285
REMARK  115  A    between atoms: _285  and  _286
REMARK  116  A    between atoms: _289  and  _291
REMARK  117  A    between atoms: _291  and  _292
REMARK  118  A    between atoms: _295  and  _297
REMARK  119  A    between atoms: _297  and  _298
REMARK  120  A    between atoms: _297  and  _300
REMARK  121  A    between atoms: _300  and  _301
REMARK  122  A    between atoms: _304  and  _306
REMARK  123  A    between atoms: _306  and  _307
REMARK  124  A    between atoms: _306  and  _309
REMARK  125  A    between atoms: _309  and  _310
REMARK  126  A    between atoms: _314  and  _315
REMARK  127  A    between atoms: _320  and  _322
REMARK  128  A    between atoms: _322  and  _323
REMARK  129  A    between atoms: _322  and  _325
REMARK  130  A    between atoms: _325  and  _326
REMARK  131  A    between atoms: _332  and  _334
REMARK  132  A    between atoms: _334  and  _335
REMARK  133  A    between atoms: _334  and  _337
REMARK  134  A    between atoms: _337  and  _338
REMARK  135  A    between atoms: _344  and  _346
REMARK  136  A    between atoms: _346  and  _347
REMARK  137  A    between atoms: _346  and  _349
REMARK  138  A    between atoms: _349  and  _350
REMARK  139  A    between atoms: _350  and  _351
REMARK  140  A    between atoms: _354  and  _356
REMARK  141  A    between atoms: _356  and  _357
REMARK  142  A    between atoms: _356  and  _359
REMARK  143  A    between atoms: _359  and  _360
REMARK  144  A    between atoms: _360  and  _361
REMARK  145  A    between atoms: _361  and  _362
REMARK  146  A    between atoms: _362  and  _363
REMARK  147  A    between atoms: _367  and  _369
REMARK  148  A    between atoms: _369  and  _370
REMARK  149  A    between atoms: _369  and  _372
REMARK  150  A    between atoms: _372  and  _373
REMARK  151  A    between atoms: _373  and  _374
REMARK  152  A    between atoms: _376  and  _378
REMARK  153  A    between atoms: _378  and  _379
REMARK  154  A    between atoms: _378  and  _381
REMARK  155  A    between atoms: _381  and  _382
REMARK  156  A    between atoms: _382  and  _383
REMARK  157  A    between atoms: _383  and  _384
REMARK  158  A    between atoms: _384  and  _385
REMARK  159  A    between atoms: _389  and  _391
REMARK  160  A    between atoms: _391  and  _392
REMARK  161  A    between atoms: _395  and  _397
REMARK  162  A    between atoms: _397  and  _398
REMARK  163  A    between atoms: _397  and  _400
REMARK  164  A    between atoms: _400  and  _401
REMARK  165  A    between atoms: _406  and  _408
REMARK  166  A    between atoms: _408  and  _409
REMARK  167  A    between atoms: _408  and  _411
REMARK  168  A    between atoms: _411  and  _412
REMARK  169  A    between atoms: _415  and  _417
REMARK  170  A    between atoms: _417  and  _418
REMARK  171  A    between atoms: _417  and  _420
REMARK  172  A    between atoms: _420  and  _421
REMARK  173  A    between atoms: _424  and  _426
REMARK  174  A    between atoms: _426  and  _427
REMARK  175  A    between atoms: _426  and  _429
REMARK  176  A    between atoms: _429  and  _430
REMARK  177  A    between atoms: _430  and  _431
REMARK  178  A    between atoms: _431  and  _432
REMARK  179  A    between atoms: _432  and  _433
REMARK  180  A    between atoms: _437  and  _439
REMARK  181  A    between atoms: _439  and  _440
REMARK  182  A    between atoms: _443  and  _445
REMARK  183  A    between atoms: _445  and  _446
REMARK  184  A    between atoms: _445  and  _448
REMARK  185  A    between atoms: _448  and  _449
REMARK  186  A    between atoms: _455  and  _457
REMARK  187  A    between atoms: _457  and  _458
REMARK  188  A    between atoms: _457  and  _460
REMARK  189  A    between atoms: _461  and  _462
REMARK  190  A    between atoms: _462  and  _463
REMARK  191  A    between atoms: _463  and  _464
REMARK  192  A    between atoms: _468  and  _470
REMARK  193  A    between atoms: _470  and  _471
REMARK  194  A    between atoms: _470  and  _473
REMARK  195  A    between atoms: _474  and  _475
REMARK  196  A    between atoms: _478  and  _480
REMARK  197  A    between atoms: _480  and  _481
REMARK  198  A    between atoms: _480  and  _483
REMARK  199  A    between atoms: _486  and  _488
REMARK  200  A    between atoms: _488  and  _489
REMARK  201  A    between atoms: _488  and  _491
REMARK  202  A    between atoms: _491  and  _492
REMARK  203  A    between atoms: _495  and  _497
REMARK  204  A    between atoms: _497  and  _498
REMARK  205  A    between atoms: _497  and  _500
REMARK  206  A    between atoms: _500  and  _501
REMARK  207  A    between atoms: _503  and  _505
REMARK  208  A    between atoms: _505  and  _506
REMARK  209  A    between atoms: _505  and  _508
REMARK  210  A    between atoms: _511  and  _513
REMARK  211  A    between atoms: _513  and  _514
REMARK  212  A    between atoms: _513  and  _516
REMARK  213  A    between atoms: _516  and  _517
REMARK  214  A    between atoms: _520  and  _522
REMARK  215  A    between atoms: _522  and  _523
REMARK  216  A    between atoms: _522  and  _525
REMARK  217  A    between atoms: _525  and  _526
REMARK                            x       y       z     vdW  Elec       q    Type
REMARK                         _______ _______ _______ _____ _____    ______ ____
ROOT
ATOM      1  O   HOH     1     -17.715  -4.688   3.290  0.00  0.00    +0.000 OA
ENDROOT
TORSDOF 0
REMARK  Name = ../refined-set-2016/2r75/2r75_pocket.pdb
REMARK  217 active torsions:
REMARK  status: ('A' for Active; 'I' for Inactive)
REMARK    1  A    between atoms: _1  and  _3
REMARK    2  A    between atoms: _3  and  _4
REMARK    3  A    between atoms: _3  and  _6
REMARK    4  A    between atoms: _9  and  _11
REMARK    5  A    between atoms: _11  and  _12
REMARK    6  A    between atoms: _14  and  _16
REMARK    7  A    between atoms: _16  and  _17
REMARK    8  A    between atoms: _19  and  _21
REMARK    9  A    between atoms: _21  and  _22
REMARK   10  A    between atoms: _24  and  _26
REMARK   11  A    between atoms: _26  and  _27
REMARK   12  A    between atoms: _29  and  _31
REMARK   13  A    between atoms: _31  and  _32
REMARK   14  A    between atoms: _31  and  _34
REMARK   15  A    between atoms: _34  and  _35
REMARK   16  A    between atoms: _37  and  _39
REMARK   17  A    between atoms: _39  and  _40
REMARK   18  A    between atoms: _39  and  _42
REMARK   19  A    between atoms: _42  and  _43
REMARK   20  A    between atoms: _48  and  _50
REMARK   21  A    between atoms: _50  and  _51
REMARK   22  A    between atoms: _54  and  _56
REMARK   23  A    between atoms: _56  and  _57
REMARK   24  A    between atoms: _56  and  _59
REMARK   25  A    between atoms: _62  and  _64
REMARK   26  A    between atoms: _64  and  _65
REMARK   27  A    between atoms: _64  and  _67
REMARK   28  A    between atoms: _67  and  _68
REMARK   29  A    between atoms: _73  and  _75
REMARK   30  A    between atoms: _75  and  _76
REMARK   31  A    between atoms: _75  and  _78
REMARK   32  A    between atoms: _78  and  _79
REMARK   33  A    between atoms: _79  and  _80
REMARK   34  A    between atoms: _80  and  _81
REMARK   35  A    between atoms: _90  and  _92
REMARK   36  A    between atoms: _92  and  _93
REMARK   37  A    between atoms: _92  and  _95
REMARK   38  A    between atoms: _95  and  _96
REMARK   39  A    between atoms: _99  and  _101
REMARK   40  A    between atoms: _101  and  _102
REMARK   41  A    between atoms: _101  and  _104
REMARK   42  A    between atoms: _104  and  _105
REMARK   43  A    between atoms: _110  and  _112
REMARK   44  A    between atoms: _112  and  _113
REMARK   45  A    between atoms: _112  and  _115
REMARK   46  A    between atoms: _115  and  _116
REMARK   47  A    between atoms: _119  and  _121
REMARK   48  A    between atoms: _121  and  _122
REMARK   49  A    between atoms: _121  and  _124
REMARK   50  A    between atoms: _124  and  _125
REMARK   51  A    between atoms: _128  and  _130
REMARK   52  A    between atoms: _130  and  _131
REMARK   53  A    between atoms: _130  and  _133
REMARK   54  A    between atoms: _133  and  _134
REMARK   55  A    between atoms: _139  and  _141
REMARK   56  A    between atoms: _141  and  _142
REMARK   57  A    between atoms: _141  and  _144
REMARK   58  A    between atoms: _144  and  _145
REMARK   59  A    between atoms: _148  and  _150
REMARK   60  A    between atoms: _150  and  _151
REMARK   61  A    between atoms: _150  and  _153
REMARK   62  A    between atoms: _153  and  _154
REMARK   63  A    between atoms: _157  and  _159
REMARK   64  A    between atoms: _159  and  _160
REMARK   65  A    between atoms: _162  and  _164
REMARK   66  A    between atoms: _164  and  _165
REMARK   67  A    between atoms: _168  and  _170
REMARK   68  A    between atoms: _170  and  _171
REMARK   69  A    between atoms: _173  and  _175
REMARK   70  A    between atoms: _175  and  _176
REMARK   71  A    between atoms: _179  and  _181
REMARK   72  A    between atoms: _181  and  _182
REMARK   73  A    between atoms: _181  and  _184
REMARK   74  A    between atoms: _184  and  _185
REMARK   75  A    between atoms: _185  and  _186
REMARK   76  A    between atoms: _186  and  _187
REMARK   77  A    between atoms: _187  and  _188
REMARK   78  A    between atoms: _193  and  _194
REMARK   79  A    between atoms: _199  and  _201
REMARK   80  A    between atoms: _201  and  _202
REMARK   81  A    between atoms: _201  and  _204
REMARK   82  A    between atoms: _207  and  _209
REMARK   83  A    between atoms: _209  and  _210
REMARK   84  A    between atoms: _212  and  _214
REMARK   85  A    between atoms: _214  and  _215
REMARK   86  A    between atoms: _214  and  _217
REMARK   87  A    between atoms: _217  and  _218
REMARK   88  A    between atoms: _220  and  _222
REMARK   89  A    between atoms: _222  and  _223
REMARK   90  A    between atoms: _226  and  _228
REMARK   91  A    between atoms: _228  and  _229
REMARK   92  A    between atoms: _231  and  _233
REMARK   93  A    between atoms: _233  and  _234
REMARK   94  A    between atoms: _233  and  _236
REMARK   95  A    between atoms: _236  and  _237
REMARK   96  A    between atoms: _240  and  _242
REMARK   97  A    between atoms: _242  and  _243
REMARK   98  A    between atoms: _245  and  _247
REMARK   99  A    between atoms: _247  and  _248
REMARK  100  A    between atoms: _250  and  _252
REMARK  101  A    between atoms: _252  and  _253
REMARK  102  A    between atoms: _255  and  _257
REMARK  103  A    between atoms: _257  and  _258
REMARK  104  A    between atoms: _257  and  _260
REMARK  105  A    between atoms: _260  and  _261
REMARK  106  A    between atoms: _264  and  _266
REMARK  107  A    between atoms: _266  and  _267
REMARK  108  A    between atoms: _269  and  _271
REMARK  109  A    between atoms: _271  and  _272
REMARK  110  A    between atoms: _271  and  _274
REMARK  111  A    between atoms: _274  and  _275
REMARK  112  A    between atoms: _278  and  _280
REMARK  113  A    between atoms: _280  and  _281
REMARK  114  A    between atoms: _283  and  _285
REMARK  115  A    between atoms: _285  and  _286
REMARK  116  A    between atoms: _289  and  _291
REMARK  117  A    between atoms: _291  and  _292
REMARK  118  A    between atoms: _295  and  _297
REMARK  119  A    between atoms: _297  and  _298
REMARK  120  A    between atoms: _297  and  _300
REMARK  121  A    between atoms: _300  and  _301
REMARK  122  A    between atoms: _304  and  _306
REMARK  123  A    between atoms: _306  and  _307
REMARK  124  A    between atoms: _306  and  _309
REMARK  125  A    between atoms: _309  and  _310
REMARK  126  A    between atoms: _314  and  _315
REMARK  127  A    between atoms: _320  and  _322
REMARK  128  A    between atoms: _322  and  _323
REMARK  129  A    between atoms: _322  and  _325
REMARK  130  A    between atoms: _325  and  _326
REMARK  131  A    between atoms: _332  and  _334
REMARK  132  A    between atoms: _334  and  _335
REMARK  133  A    between atoms: _334  and  _337
REMARK  134  A    between atoms: _337  and  _338
REMARK  135  A    between atoms: _344  and  _346
REMARK  136  A    between atoms: _346  and  _347
REMARK  137  A    between atoms: _346  and  _349
REMARK  138  A    between atoms: _349  and  _350
REMARK  139  A    between atoms: _350  and  _351
REMARK  140  A    between atoms: _354  and  _356
REMARK  141  A    between atoms: _356  and  _357
REMARK  142  A    between atoms: _356  and  _359
REMARK  143  A    between atoms: _359  and  _360
REMARK  144  A    between atoms: _360  and  _361
REMARK  145  A    between atoms: _361  and  _362
REMARK  146  A    between atoms: _362  and  _363
REMARK  147  A    between atoms: _367  and  _369
REMARK  148  A    between atoms: _369  and  _370
REMARK  149  A    between atoms: _369  and  _372
REMARK  150  A    between atoms: _372  and  _373
REMARK  151  A    between atoms: _373  and  _374
REMARK  152  A    between atoms: _376  and  _378
REMARK  153  A    between atoms: _378  and  _379
REMARK  154  A    between atoms: _378  and  _381
REMARK  155  A    between atoms: _381  and  _382
REMARK  156  A    between atoms: _382  and  _383
REMARK  157  A    between atoms: _383  and  _384
REMARK  158  A    between atoms: _384  and  _385
REMARK  159  A    between atoms: _389  and  _391
REMARK  160  A    between atoms: _391  and  _392
REMARK  161  A    between atoms: _395  and  _397
REMARK  162  A    between atoms: _397  and  _398
REMARK  163  A    between atoms: _397  and  _400
REMARK  164  A    between atoms: _400  and  _401
REMARK  165  A    between atoms: _406  and  _408
REMARK  166  A    between atoms: _408  and  _409
REMARK  167  A    between atoms: _408  and  _411
REMARK  168  A    between atoms: _411  and  _412
REMARK  169  A    between atoms: _415  and  _417
REMARK  170  A    between atoms: _417  and  _418
REMARK  171  A    between atoms: _417  and  _420
REMARK  172  A    between atoms: _420  and  _421
REMARK  173  A    between atoms: _424  and  _426
REMARK  174  A    between atoms: _426  and  _427
REMARK  175  A    between atoms: _426  and  _429
REMARK  176  A    between atoms: _429  and  _430
REMARK  177  A    between atoms: _430  and  _431
REMARK  178  A    between atoms: _431  and  _432
REMARK  179  A    between atoms: _432  and  _433
REMARK  180  A    between atoms: _437  and  _439
REMARK  181  A    between atoms: _439  and  _440
REMARK  182  A    between atoms: _443  and  _445
REMARK  183  A    between atoms: _445  and  _446
REMARK  184  A    between atoms: _445  and  _448
REMARK  185  A    between atoms: _448  and  _449
REMARK  186  A    between atoms: _455  and  _457
REMARK  187  A    between atoms: _457  and  _458
REMARK  188  A    between atoms: _457  and  _460
REMARK  189  A    between atoms: _461  and  _462
REMARK  190  A    between atoms: _462  and  _463
REMARK  191  A    between atoms: _463  and  _464
REMARK  192  A    between atoms: _468  and  _470
REMARK  193  A    between atoms: _470  and  _471
REMARK  194  A    between atoms: _470  and  _473
REMARK  195  A    between atoms: _474  and  _475
REMARK  196  A    between atoms: _478  and  _480
REMARK  197  A    between atoms: _480  and  _481
REMARK  198  A    between atoms: _480  and  _483
REMARK  199  A    between atoms: _486  and  _488
REMARK  200  A    between atoms: _488  and  _489
REMARK  201  A    between atoms: _488  and  _491
REMARK  202  A    between atoms: _491  and  _492
REMARK  203  A    between atoms: _495  and  _497
REMARK  204  A    between atoms: _497  and  _498
REMARK  205  A    between atoms: _497  and  _500
REMARK  206  A    between atoms: _500  and  _501
REMARK  207  A    between atoms: _503  and  _505
REMARK  208  A    between atoms: _505  and  _506
REMARK  209  A    between atoms: _505  and  _508
REMARK  210  A    between atoms: _511  and  _513
REMARK  211  A    between atoms: _513  and  _514
REMARK  212  A    between atoms: _513  and  _516
REMARK  213  A    between atoms: _516  and  _517
REMARK  214  A    between atoms: _520  and  _522
REMARK  215  A    between atoms: _522  and  _523
REMARK  216  A    between atoms: _522  and  _525
REMARK  217  A    between atoms: _525  and  _526
REMARK                            x       y       z     vdW  Elec       q    Type
REMARK                         _______ _______ _______ _____ _____    ______ ____
ROOT
ATOM      1  O   HOH     1     -10.754  -4.925  11.064  0.00  0.00    +0.000 OA
ENDROOT
TORSDOF 0
REMARK  Name = ../refined-set-2016/2r75/2r75_pocket.pdb
REMARK  217 active torsions:
REMARK  status: ('A' for Active; 'I' for Inactive)
REMARK    1  A    between atoms: _1  and  _3
REMARK    2  A    between atoms: _3  and  _4
REMARK    3  A    between atoms: _3  and  _6
REMARK    4  A    between atoms: _9  and  _11
REMARK    5  A    between atoms: _11  and  _12
REMARK    6  A    between atoms: _14  and  _16
REMARK    7  A    between atoms: _16  and  _17
REMARK    8  A    between atoms: _19  and  _21
REMARK    9  A    between atoms: _21  and  _22
REMARK   10  A    between atoms: _24  and  _26
REMARK   11  A    between atoms: _26  and  _27
REMARK   12  A    between atoms: _29  and  _31
REMARK   13  A    between atoms: _31  and  _32
REMARK   14  A    between atoms: _31  and  _34
REMARK   15  A    between atoms: _34  and  _35
REMARK   16  A    between atoms: _37  and  _39
REMARK   17  A    between atoms: _39  and  _40
REMARK   18  A    between atoms: _39  and  _42
REMARK   19  A    between atoms: _42  and  _43
REMARK   20  A    between atoms: _48  and  _50
REMARK   21  A    between atoms: _50  and  _51
REMARK   22  A    between atoms: _54  and  _56
REMARK   23  A    between atoms: _56  and  _57
REMARK   24  A    between atoms: _56  and  _59
REMARK   25  A    between atoms: _62  and  _64
REMARK   26  A    between atoms: _64  and  _65
REMARK   27  A    between atoms: _64  and  _67
REMARK   28  A    between atoms: _67  and  _68
REMARK   29  A    between atoms: _73  and  _75
REMARK   30  A    between atoms: _75  and  _76
REMARK   31  A    between atoms: _75  and  _78
REMARK   32  A    between atoms: _78  and  _79
REMARK   33  A    between atoms: _79  and  _80
REMARK   34  A    between atoms: _80  and  _81
REMARK   35  A    between atoms: _90  and  _92
REMARK   36  A    between atoms: _92  and  _93
REMARK   37  A    between atoms: _92  and  _95
REMARK   38  A    between atoms: _95  and  _96
REMARK   39  A    between atoms: _99  and  _101
REMARK   40  A    between atoms: _101  and  _102
REMARK   41  A    between atoms: _101  and  _104
REMARK   42  A    between atoms: _104  and  _105
REMARK   43  A    between atoms: _110  and  _112
REMARK   44  A    between atoms: _112  and  _113
REMARK   45  A    between atoms: _112  and  _115
REMARK   46  A    between atoms: _115  and  _116
REMARK   47  A    between atoms: _119  and  _121
REMARK   48  A    between atoms: _121  and  _122
REMARK   49  A    between atoms: _121  and  _124
REMARK   50  A    between atoms: _124  and  _125
REMARK   51  A    between atoms: _128  and  _130
REMARK   52  A    between atoms: _130  and  _131
REMARK   53  A    between atoms: _130  and  _133
REMARK   54  A    between atoms: _133  and  _134
REMARK   55  A    between atoms: _139  and  _141
REMARK   56  A    between atoms: _141  and  _142
REMARK   57  A    between atoms: _141  and  _144
REMARK   58  A    between atoms: _144  and  _145
REMARK   59  A    between atoms: _148  and  _150
REMARK   60  A    between atoms: _150  and  _151
REMARK   61  A    between atoms: _150  and  _153
REMARK   62  A    between atoms: _153  and  _154
REMARK   63  A    between atoms: _157  and  _159
REMARK   64  A    between atoms: _159  and  _160
REMARK   65  A    between atoms: _162  and  _164
REMARK   66  A    between atoms: _164  and  _165
REMARK   67  A    between atoms: _168  and  _170
REMARK   68  A    between atoms: _170  and  _171
REMARK   69  A    between atoms: _173  and  _175
REMARK   70  A    between atoms: _175  and  _176
REMARK   71  A    between atoms: _179  and  _181
REMARK   72  A    between atoms: _181  and  _182
REMARK   73  A    between atoms: _181  and  _184
REMARK   74  A    between atoms: _184  and  _185
REMARK   75  A    between atoms: _185  and  _186
REMARK   76  A    between atoms: _186  and  _187
REMARK   77  A    between atoms: _187  and  _188
REMARK   78  A    between atoms: _193  and  _194
REMARK   79  A    between atoms: _199  and  _201
REMARK   80  A    between atoms: _201  and  _202
REMARK   81  A    between atoms: _201  and  _204
REMARK   82  A    between atoms: _207  and  _209
REMARK   83  A    between atoms: _209  and  _210
REMARK   84  A    between atoms: _212  and  _214
REMARK   85  A    between atoms: _214  and  _215
REMARK   86  A    between atoms: _214  and  _217
REMARK   87  A    between atoms: _217  and  _218
REMARK   88  A    between atoms: _220  and  _222
REMARK   89  A    between atoms: _222  and  _223
REMARK   90  A    between atoms: _226  and  _228
REMARK   91  A    between atoms: _228  and  _229
REMARK   92  A    between atoms: _231  and  _233
REMARK   93  A    between atoms: _233  and  _234
REMARK   94  A    between atoms: _233  and  _236
REMARK   95  A    between atoms: _236  and  _237
REMARK   96  A    between atoms: _240  and  _242
REMARK   97  A    between atoms: _242  and  _243
REMARK   98  A    between atoms: _245  and  _247
REMARK   99  A    between atoms: _247  and  _248
REMARK  100  A    between atoms: _250  and  _252
REMARK  101  A    between atoms: _252  and  _253
REMARK  102  A    between atoms: _255  and  _257
REMARK  103  A    between atoms: _257  and  _258
REMARK  104  A    between atoms: _257  and  _260
REMARK  105  A    between atoms: _260  and  _261
REMARK  106  A    between atoms: _264  and  _266
REMARK  107  A    between atoms: _266  and  _267
REMARK  108  A    between atoms: _269  and  _271
REMARK  109  A    between atoms: _271  and  _272
REMARK  110  A    between atoms: _271  and  _274
REMARK  111  A    between atoms: _274  and  _275
REMARK  112  A    between atoms: _278  and  _280
REMARK  113  A    between atoms: _280  and  _281
REMARK  114  A    between atoms: _283  and  _285
REMARK  115  A    between atoms: _285  and  _286
REMARK  116  A    between atoms: _289  and  _291
REMARK  117  A    between atoms: _291  and  _292
REMARK  118  A    between atoms: _295  and  _297
REMARK  119  A    between atoms: _297  and  _298
REMARK  120  A    between atoms: _297  and  _300
REMARK  121  A    between atoms: _300  and  _301
REMARK  122  A    between atoms: _304  and  _306
REMARK  123  A    between atoms: _306  and  _307
REMARK  124  A    between atoms: _306  and  _309
REMARK  125  A    between atoms: _309  and  _310
REMARK  126  A    between atoms: _314  and  _315
REMARK  127  A    between atoms: _320  and  _322
REMARK  128  A    between atoms: _322  and  _323
REMARK  129  A    between atoms: _322  and  _325
REMARK  130  A    between atoms: _325  and  _326
REMARK  131  A    between atoms: _332  and  _334
REMARK  132  A    between atoms: _334  and  _335
REMARK  133  A    between atoms: _334  and  _337
REMARK  134  A    between atoms: _337  and  _338
REMARK  135  A    between atoms: _344  and  _346
REMARK  136  A    between atoms: _346  and  _347
REMARK  137  A    between atoms: _346  and  _349
REMARK  138  A    between atoms: _349  and  _350
REMARK  139  A    between atoms: _350  and  _351
REMARK  140  A    between atoms: _354  and  _356
REMARK  141  A    between atoms: _356  and  _357
REMARK  142  A    between atoms: _356  and  _359
REMARK  143  A    between atoms: _359  and  _360
REMARK  144  A    between atoms: _360  and  _361
REMARK  145  A    between atoms: _361  and  _362
REMARK  146  A    between atoms: _362  and  _363
REMARK  147  A    between atoms: _367  and  _369
REMARK  148  A    between atoms: _369  and  _370
REMARK  149  A    between atoms: _369  and  _372
REMARK  150  A    between atoms: _372  and  _373
REMARK  151  A    between atoms: _373  and  _374
REMARK  152  A    between atoms: _376  and  _378
REMARK  153  A    between atoms: _378  and  _379
REMARK  154  A    between atoms: _378  and  _381
REMARK  155  A    between atoms: _381  and  _382
REMARK  156  A    between atoms: _382  and  _383
REMARK  157  A    between atoms: _383  and  _384
REMARK  158  A    between atoms: _384  and  _385
REMARK  159  A    between atoms: _389  and  _391
REMARK  160  A    between atoms: _391  and  _392
REMARK  161  A    between atoms: _395  and  _397
REMARK  162  A    between atoms: _397  and  _398
REMARK  163  A    between atoms: _397  and  _400
REMARK  164  A    between atoms: _400  and  _401
REMARK  165  A    between atoms: _406  and  _408
REMARK  166  A    between atoms: _408  and  _409
REMARK  167  A    between atoms: _408  and  _411
REMARK  168  A    between atoms: _411  and  _412
REMARK  169  A    between atoms: _415  and  _417
REMARK  170  A    between atoms: _417  and  _418
REMARK  171  A    between atoms: _417  and  _420
REMARK  172  A    between atoms: _420  and  _421
REMARK  173  A    between atoms: _424  and  _426
REMARK  174  A    between atoms: _426  and  _427
REMARK  175  A    between atoms: _426  and  _429
REMARK  176  A    between atoms: _429  and  _430
REMARK  177  A    between atoms: _430  and  _431
REMARK  178  A    between atoms: _431  and  _432
REMARK  179  A    between atoms: _432  and  _433
REMARK  180  A    between atoms: _437  and  _439
REMARK  181  A    between atoms: _439  and  _440
REMARK  182  A    between atoms: _443  and  _445
REMARK  183  A    between atoms: _445  and  _446
REMARK  184  A    between atoms: _445  and  _448
REMARK  185  A    between atoms: _448  and  _449
REMARK  186  A    between atoms: _455  and  _457
REMARK  187  A    between atoms: _457  and  _458
REMARK  188  A    between atoms: _457  and  _460
REMARK  189  A    between atoms: _461  and  _462
REMARK  190  A    between atoms: _462  and  _463
REMARK  191  A    between atoms: _463  and  _464
REMARK  192  A    between atoms: _468  and  _470
REMARK  193  A    between atoms: _470  and  _471
REMARK  194  A    between atoms: _470  and  _473
REMARK  195  A    between atoms: _474  and  _475
REMARK  196  A    between atoms: _478  and  _480
REMARK  197  A    between atoms: _480  and  _481
REMARK  198  A    between atoms: _480  and  _483
REMARK  199  A    between atoms: _486  and  _488
REMARK  200  A    between atoms: _488  and  _489
REMARK  201  A    between atoms: _488  and  _491
REMARK  202  A    between atoms: _491  and  _492
REMARK  203  A    between atoms: _495  and  _497
REMARK  204  A    between atoms: _497  and  _498
REMARK  205  A    between atoms: _497  and  _500
REMARK  206  A    between atoms: _500  and  _501
REMARK  207  A    between atoms: _503  and  _505
REMARK  208  A    between atoms: _505  and  _506
REMARK  209  A    between atoms: _505  and  _508
REMARK  210  A    between atoms: _511  and  _513
REMARK  211  A    between atoms: _513  and  _514
REMARK  212  A    between atoms: _513  and  _516
REMARK  213  A    between atoms: _516  and  _517
REMARK  214  A    between atoms: _520  and  _522
REMARK  215  A    between atoms: _522  and  _523
REMARK  216  A    between atoms: _522  and  _525
REMARK  217  A    between atoms: _525  and  _526
REMARK                            x       y       z     vdW  Elec       q    Type
REMARK                         _______ _______ _______ _____ _____    ______ ____
ROOT
ATOM      1  O   HOH     1      -6.895   4.086  16.102  0.00  0.00    +0.000 OA
ENDROOT
TORSDOF 0
REMARK  Name = ../refined-set-2016/2r75/2r75_pocket.pdb
REMARK  217 active torsions:
REMARK  status: ('A' for Active; 'I' for Inactive)
REMARK    1  A    between atoms: _1  and  _3
REMARK    2  A    between atoms: _3  and  _4
REMARK    3  A    between atoms: _3  and  _6
REMARK    4  A    between atoms: _9  and  _11
REMARK    5  A    between atoms: _11  and  _12
REMARK    6  A    between atoms: _14  and  _16
REMARK    7  A    between atoms: _16  and  _17
REMARK    8  A    between atoms: _19  and  _21
REMARK    9  A    between atoms: _21  and  _22
REMARK   10  A    between atoms: _24  and  _26
REMARK   11  A    between atoms: _26  and  _27
REMARK   12  A    between atoms: _29  and  _31
REMARK   13  A    between atoms: _31  and  _32
REMARK   14  A    between atoms: _31  and  _34
REMARK   15  A    between atoms: _34  and  _35
REMARK   16  A    between atoms: _37  and  _39
REMARK   17  A    between atoms: _39  and  _40
REMARK   18  A    between atoms: _39  and  _42
REMARK   19  A    between atoms: _42  and  _43
REMARK   20  A    between atoms: _48  and  _50
REMARK   21  A    between atoms: _50  and  _51
REMARK   22  A    between atoms: _54  and  _56
REMARK   23  A    between atoms: _56  and  _57
REMARK   24  A    between atoms: _56  and  _59
REMARK   25  A    between atoms: _62  and  _64
REMARK   26  A    between atoms: _64  and  _65
REMARK   27  A    between atoms: _64  and  _67
REMARK   28  A    between atoms: _67  and  _68
REMARK   29  A    between atoms: _73  and  _75
REMARK   30  A    between atoms: _75  and  _76
REMARK   31  A    between atoms: _75  and  _78
REMARK   32  A    between atoms: _78  and  _79
REMARK   33  A    between atoms: _79  and  _80
REMARK   34  A    between atoms: _80  and  _81
REMARK   35  A    between atoms: _90  and  _92
REMARK   36  A    between atoms: _92  and  _93
REMARK   37  A    between atoms: _92  and  _95
REMARK   38  A    between atoms: _95  and  _96
REMARK   39  A    between atoms: _99  and  _101
REMARK   40  A    between atoms: _101  and  _102
REMARK   41  A    between atoms: _101  and  _104
REMARK   42  A    between atoms: _104  and  _105
REMARK   43  A    between atoms: _110  and  _112
REMARK   44  A    between atoms: _112  and  _113
REMARK   45  A    between atoms: _112  and  _115
REMARK   46  A    between atoms: _115  and  _116
REMARK   47  A    between atoms: _119  and  _121
REMARK   48  A    between atoms: _121  and  _122
REMARK   49  A    between atoms: _121  and  _124
REMARK   50  A    between atoms: _124  and  _125
REMARK   51  A    between atoms: _128  and  _130
REMARK   52  A    between atoms: _130  and  _131
REMARK   53  A    between atoms: _130  and  _133
REMARK   54  A    between atoms: _133  and  _134
REMARK   55  A    between atoms: _139  and  _141
REMARK   56  A    between atoms: _141  and  _142
REMARK   57  A    between atoms: _141  and  _144
REMARK   58  A    between atoms: _144  and  _145
REMARK   59  A    between atoms: _148  and  _150
REMARK   60  A    between atoms: _150  and  _151
REMARK   61  A    between atoms: _150  and  _153
REMARK   62  A    between atoms: _153  and  _154
REMARK   63  A    between atoms: _157  and  _159
REMARK   64  A    between atoms: _159  and  _160
REMARK   65  A    between atoms: _162  and  _164
REMARK   66  A    between atoms: _164  and  _165
REMARK   67  A    between atoms: _168  and  _170
REMARK   68  A    between atoms: _170  and  _171
REMARK   69  A    between atoms: _173  and  _175
REMARK   70  A    between atoms: _175  and  _176
REMARK   71  A    between atoms: _179  and  _181
REMARK   72  A    between atoms: _181  and  _182
REMARK   73  A    between atoms: _181  and  _184
REMARK   74  A    between atoms: _184  and  _185
REMARK   75  A    between atoms: _185  and  _186
REMARK   76  A    between atoms: _186  and  _187
REMARK   77  A    between atoms: _187  and  _188
REMARK   78  A    between atoms: _193  and  _194
REMARK   79  A    between atoms: _199  and  _201
REMARK   80  A    between atoms: _201  and  _202
REMARK   81  A    between atoms: _201  and  _204
REMARK   82  A    between atoms: _207  and  _209
REMARK   83  A    between atoms: _209  and  _210
REMARK   84  A    between atoms: _212  and  _214
REMARK   85  A    between atoms: _214  and  _215
REMARK   86  A    between atoms: _214  and  _217
REMARK   87  A    between atoms: _217  and  _218
REMARK   88  A    between atoms: _220  and  _222
REMARK   89  A    between atoms: _222  and  _223
REMARK   90  A    between atoms: _226  and  _228
REMARK   91  A    between atoms: _228  and  _229
REMARK   92  A    between atoms: _231  and  _233
REMARK   93  A    between atoms: _233  and  _234
REMARK   94  A    between atoms: _233  and  _236
REMARK   95  A    between atoms: _236  and  _237
REMARK   96  A    between atoms: _240  and  _242
REMARK   97  A    between atoms: _242  and  _243
REMARK   98  A    between atoms: _245  and  _247
REMARK   99  A    between atoms: _247  and  _248
REMARK  100  A    between atoms: _250  and  _252
REMARK  101  A    between atoms: _252  and  _253
REMARK  102  A    between atoms: _255  and  _257
REMARK  103  A    between atoms: _257  and  _258
REMARK  104  A    between atoms: _257  and  _260
REMARK  105  A    between atoms: _260  and  _261
REMARK  106  A    between atoms: _264  and  _266
REMARK  107  A    between atoms: _266  and  _267
REMARK  108  A    between atoms: _269  and  _271
REMARK  109  A    between atoms: _271  and  _272
REMARK  110  A    between atoms: _271  and  _274
REMARK  111  A    between atoms: _274  and  _275
REMARK  112  A    between atoms: _278  and  _280
REMARK  113  A    between atoms: _280  and  _281
REMARK  114  A    between atoms: _283  and  _285
REMARK  115  A    between atoms: _285  and  _286
REMARK  116  A    between atoms: _289  and  _291
REMARK  117  A    between atoms: _291  and  _292
REMARK  118  A    between atoms: _295  and  _297
REMARK  119  A    between atoms: _297  and  _298
REMARK  120  A    between atoms: _297  and  _300
REMARK  121  A    between atoms: _300  and  _301
REMARK  122  A    between atoms: _304  and  _306
REMARK  123  A    between atoms: _306  and  _307
REMARK  124  A    between atoms: _306  and  _309
REMARK  125  A    between atoms: _309  and  _310
REMARK  126  A    between atoms: _314  and  _315
REMARK  127  A    between atoms: _320  and  _322
REMARK  128  A    between atoms: _322  and  _323
REMARK  129  A    between atoms: _322  and  _325
REMARK  130  A    between atoms: _325  and  _326
REMARK  131  A    between atoms: _332  and  _334
REMARK  132  A    between atoms: _334  and  _335
REMARK  133  A    between atoms: _334  and  _337
REMARK  134  A    between atoms: _337  and  _338
REMARK  135  A    between atoms: _344  and  _346
REMARK  136  A    between atoms: _346  and  _347
REMARK  137  A    between atoms: _346  and  _349
REMARK  138  A    between atoms: _349  and  _350
REMARK  139  A    between atoms: _350  and  _351
REMARK  140  A    between atoms: _354  and  _356
REMARK  141  A    between atoms: _356  and  _357
REMARK  142  A    between atoms: _356  and  _359
REMARK  143  A    between atoms: _359  and  _360
REMARK  144  A    between atoms: _360  and  _361
REMARK  145  A    between atoms: _361  and  _362
REMARK  146  A    between atoms: _362  and  _363
REMARK  147  A    between atoms: _367  and  _369
REMARK  148  A    between atoms: _369  and  _370
REMARK  149  A    between atoms: _369  and  _372
REMARK  150  A    between atoms: _372  and  _373
REMARK  151  A    between atoms: _373  and  _374
REMARK  152  A    between atoms: _376  and  _378
REMARK  153  A    between atoms: _378  and  _379
REMARK  154  A    between atoms: _378  and  _381
REMARK  155  A    between atoms: _381  and  _382
REMARK  156  A    between atoms: _382  and  _383
REMARK  157  A    between atoms: _383  and  _384
REMARK  158  A    between atoms: _384  and  _385
REMARK  159  A    between atoms: _389  and  _391
REMARK  160  A    between atoms: _391  and  _392
REMARK  161  A    between atoms: _395  and  _397
REMARK  162  A    between atoms: _397  and  _398
REMARK  163  A    between atoms: _397  and  _400
REMARK  164  A    between atoms: _400  and  _401
REMARK  165  A    between atoms: _406  and  _408
REMARK  166  A    between atoms: _408  and  _409
REMARK  167  A    between atoms: _408  and  _411
REMARK  168  A    between atoms: _411  and  _412
REMARK  169  A    between atoms: _415  and  _417
REMARK  170  A    between atoms: _417  and  _418
REMARK  171  A    between atoms: _417  and  _420
REMARK  172  A    between atoms: _420  and  _421
REMARK  173  A    between atoms: _424  and  _426
REMARK  174  A    between atoms: _426  and  _427
REMARK  175  A    between atoms: _426  and  _429
REMARK  176  A    between atoms: _429  and  _430
REMARK  177  A    between atoms: _430  and  _431
REMARK  178  A    between atoms: _431  and  _432
REMARK  179  A    between atoms: _432  and  _433
REMARK  180  A    between atoms: _437  and  _439
REMARK  181  A    between atoms: _439  and  _440
REMARK  182  A    between atoms: _443  and  _445
REMARK  183  A    between atoms: _445  and  _446
REMARK  184  A    between atoms: _445  and  _448
REMARK  185  A    between atoms: _448  and  _449
REMARK  186  A    between atoms: _455  and  _457
REMARK  187  A    between atoms: _457  and  _458
REMARK  188  A    between atoms: _457  and  _460
REMARK  189  A    between atoms: _461  and  _462
REMARK  190  A    between atoms: _462  and  _463
REMARK  191  A    between atoms: _463  and  _464
REMARK  192  A    between atoms: _468  and  _470
REMARK  193  A    between atoms: _470  and  _471
REMARK  194  A    between atoms: _470  and  _473
REMARK  195  A    between atoms: _474  and  _475
REMARK  196  A    between atoms: _478  and  _480
REMARK  197  A    between atoms: _480  and  _481
REMARK  198  A    between atoms: _480  and  _483
REMARK  199  A    between atoms: _486  and  _488
REMARK  200  A    between atoms: _488  and  _489
REMARK  201  A    between atoms: _488  and  _491
REMARK  202  A    between atoms: _491  and  _492
REMARK  203  A    between atoms: _495  and  _497
REMARK  204  A    between atoms: _497  and  _498
REMARK  205  A    between atoms: _497  and  _500
REMARK  206  A    between atoms: _500  and  _501
REMARK  207  A    between atoms: _503  and  _505
REMARK  208  A    between atoms: _505  and  _506
REMARK  209  A    between atoms: _505  and  _508
REMARK  210  A    between atoms: _511  and  _513
REMARK  211  A    between atoms: _513  and  _514
REMARK  212  A    between atoms: _513  and  _516
REMARK  213  A    between atoms: _516  and  _517
REMARK  214  A    between atoms: _520  and  _522
REMARK  215  A    between atoms: _522  and  _523
REMARK  216  A    between atoms: _522  and  _525
REMARK  217  A    between atoms: _525  and  _526
REMARK                            x       y       z     vdW  Elec       q    Type
REMARK                         _______ _______ _______ _____ _____    ______ ____
ROOT
ATOM      1  O   HOH     1      -4.868   3.695  22.829  0.00  0.00    +0.000 OA
ENDROOT
TORSDOF 0
REMARK  Name = ../refined-set-2016/2r75/2r75_pocket.pdb
REMARK  217 active torsions:
REMARK  status: ('A' for Active; 'I' for Inactive)
REMARK    1  A    between atoms: _1  and  _3
REMARK    2  A    between atoms: _3  and  _4
REMARK    3  A    between atoms: _3  and  _6
REMARK    4  A    between atoms: _9  and  _11
REMARK    5  A    between atoms: _11  and  _12
REMARK    6  A    between atoms: _14  and  _16
REMARK    7  A    between atoms: _16  and  _17
REMARK    8  A    between atoms: _19  and  _21
REMARK    9  A    between atoms: _21  and  _22
REMARK   10  A    between atoms: _24  and  _26
REMARK   11  A    between atoms: _26  and  _27
REMARK   12  A    between atoms: _29  and  _31
REMARK   13  A    between atoms: _31  and  _32
REMARK   14  A    between atoms: _31  and  _34
REMARK   15  A    between atoms: _34  and  _35
REMARK   16  A    between atoms: _37  and  _39
REMARK   17  A    between atoms: _39  and  _40
REMARK   18  A    between atoms: _39  and  _42
REMARK   19  A    between atoms: _42  and  _43
REMARK   20  A    between atoms: _48  and  _50
REMARK   21  A    between atoms: _50  and  _51
REMARK   22  A    between atoms: _54  and  _56
REMARK   23  A    between atoms: _56  and  _57
REMARK   24  A    between atoms: _56  and  _59
REMARK   25  A    between atoms: _62  and  _64
REMARK   26  A    between atoms: _64  and  _65
REMARK   27  A    between atoms: _64  and  _67
REMARK   28  A    between atoms: _67  and  _68
REMARK   29  A    between atoms: _73  and  _75
REMARK   30  A    between atoms: _75  and  _76
REMARK   31  A    between atoms: _75  and  _78
REMARK   32  A    between atoms: _78  and  _79
REMARK   33  A    between atoms: _79  and  _80
REMARK   34  A    between atoms: _80  and  _81
REMARK   35  A    between atoms: _90  and  _92
REMARK   36  A    between atoms: _92  and  _93
REMARK   37  A    between atoms: _92  and  _95
REMARK   38  A    between atoms: _95  and  _96
REMARK   39  A    between atoms: _99  and  _101
REMARK   40  A    between atoms: _101  and  _102
REMARK   41  A    between atoms: _101  and  _104
REMARK   42  A    between atoms: _104  and  _105
REMARK   43  A    between atoms: _110  and  _112
REMARK   44  A    between atoms: _112  and  _113
REMARK   45  A    between atoms: _112  and  _115
REMARK   46  A    between atoms: _115  and  _116
REMARK   47  A    between atoms: _119  and  _121
REMARK   48  A    between atoms: _121  and  _122
REMARK   49  A    between atoms: _121  and  _124
REMARK   50  A    between atoms: _124  and  _125
REMARK   51  A    between atoms: _128  and  _130
REMARK   52  A    between atoms: _130  and  _131
REMARK   53  A    between atoms: _130  and  _133
REMARK   54  A    between atoms: _133  and  _134
REMARK   55  A    between atoms: _139  and  _141
REMARK   56  A    between atoms: _141  and  _142
REMARK   57  A    between atoms: _141  and  _144
REMARK   58  A    between atoms: _144  and  _145
REMARK   59  A    between atoms: _148  and  _150
REMARK   60  A    between atoms: _150  and  _151
REMARK   61  A    between atoms: _150  and  _153
REMARK   62  A    between atoms: _153  and  _154
REMARK   63  A    between atoms: _157  and  _159
REMARK   64  A    between atoms: _159  and  _160
REMARK   65  A    between atoms: _162  and  _164
REMARK   66  A    between atoms: _164  and  _165
REMARK   67  A    between atoms: _168  and  _170
REMARK   68  A    between atoms: _170  and  _171
REMARK   69  A    between atoms: _173  and  _175
REMARK   70  A    between atoms: _175  and  _176
REMARK   71  A    between atoms: _179  and  _181
REMARK   72  A    between atoms: _181  and  _182
REMARK   73  A    between atoms: _181  and  _184
REMARK   74  A    between atoms: _184  and  _185
REMARK   75  A    between atoms: _185  and  _186
REMARK   76  A    between atoms: _186  and  _187
REMARK   77  A    between atoms: _187  and  _188
REMARK   78  A    between atoms: _193  and  _194
REMARK   79  A    between atoms: _199  and  _201
REMARK   80  A    between atoms: _201  and  _202
REMARK   81  A    between atoms: _201  and  _204
REMARK   82  A    between atoms: _207  and  _209
REMARK   83  A    between atoms: _209  and  _210
REMARK   84  A    between atoms: _212  and  _214
REMARK   85  A    between atoms: _214  and  _215
REMARK   86  A    between atoms: _214  and  _217
REMARK   87  A    between atoms: _217  and  _218
REMARK   88  A    between atoms: _220  and  _222
REMARK   89  A    between atoms: _222  and  _223
REMARK   90  A    between atoms: _226  and  _228
REMARK   91  A    between atoms: _228  and  _229
REMARK   92  A    between atoms: _231  and  _233
REMARK   93  A    between atoms: _233  and  _234
REMARK   94  A    between atoms: _233  and  _236
REMARK   95  A    between atoms: _236  and  _237
REMARK   96  A    between atoms: _240  and  _242
REMARK   97  A    between atoms: _242  and  _243
REMARK   98  A    between atoms: _245  and  _247
REMARK   99  A    between atoms: _247  and  _248
REMARK  100  A    between atoms: _250  and  _252
REMARK  101  A    between atoms: _252  and  _253
REMARK  102  A    between atoms: _255  and  _257
REMARK  103  A    between atoms: _257  and  _258
REMARK  104  A    between atoms: _257  and  _260
REMARK  105  A    between atoms: _260  and  _261
REMARK  106  A    between atoms: _264  and  _266
REMARK  107  A    between atoms: _266  and  _267
REMARK  108  A    between atoms: _269  and  _271
REMARK  109  A    between atoms: _271  and  _272
REMARK  110  A    between atoms: _271  and  _274
REMARK  111  A    between atoms: _274  and  _275
REMARK  112  A    between atoms: _278  and  _280
REMARK  113  A    between atoms: _280  and  _281
REMARK  114  A    between atoms: _283  and  _285
REMARK  115  A    between atoms: _285  and  _286
REMARK  116  A    between atoms: _289  and  _291
REMARK  117  A    between atoms: _291  and  _292
REMARK  118  A    between atoms: _295  and  _297
REMARK  119  A    between atoms: _297  and  _298
REMARK  120  A    between atoms: _297  and  _300
REMARK  121  A    between atoms: _300  and  _301
REMARK  122  A    between atoms: _304  and  _306
REMARK  123  A    between atoms: _306  and  _307
REMARK  124  A    between atoms: _306  and  _309
REMARK  125  A    between atoms: _309  and  _310
REMARK  126  A    between atoms: _314  and  _315
REMARK  127  A    between atoms: _320  and  _322
REMARK  128  A    between atoms: _322  and  _323
REMARK  129  A    between atoms: _322  and  _325
REMARK  130  A    between atoms: _325  and  _326
REMARK  131  A    between atoms: _332  and  _334
REMARK  132  A    between atoms: _334  and  _335
REMARK  133  A    between atoms: _334  and  _337
REMARK  134  A    between atoms: _337  and  _338
REMARK  135  A    between atoms: _344  and  _346
REMARK  136  A    between atoms: _346  and  _347
REMARK  137  A    between atoms: _346  and  _349
REMARK  138  A    between atoms: _349  and  _350
REMARK  139  A    between atoms: _350  and  _351
REMARK  140  A    between atoms: _354  and  _356
REMARK  141  A    between atoms: _356  and  _357
REMARK  142  A    between atoms: _356  and  _359
REMARK  143  A    between atoms: _359  and  _360
REMARK  144  A    between atoms: _360  and  _361
REMARK  145  A    between atoms: _361  and  _362
REMARK  146  A    between atoms: _362  and  _363
REMARK  147  A    between atoms: _367  and  _369
REMARK  148  A    between atoms: _369  and  _370
REMARK  149  A    between atoms: _369  and  _372
REMARK  150  A    between atoms: _372  and  _373
REMARK  151  A    between atoms: _373  and  _374
REMARK  152  A    between atoms: _376  and  _378
REMARK  153  A    between atoms: _378  and  _379
REMARK  154  A    between atoms: _378  and  _381
REMARK  155  A    between atoms: _381  and  _382
REMARK  156  A    between atoms: _382  and  _383
REMARK  157  A    between atoms: _383  and  _384
REMARK  158  A    between atoms: _384  and  _385
REMARK  159  A    between atoms: _389  and  _391
REMARK  160  A    between atoms: _391  and  _392
REMARK  161  A    between atoms: _395  and  _397
REMARK  162  A    between atoms: _397  and  _398
REMARK  163  A    between atoms: _397  and  _400
REMARK  164  A    between atoms: _400  and  _401
REMARK  165  A    between atoms: _406  and  _408
REMARK  166  A    between atoms: _408  and  _409
REMARK  167  A    between atoms: _408  and  _411
REMARK  168  A    between atoms: _411  and  _412
REMARK  169  A    between atoms: _415  and  _417
REMARK  170  A    between atoms: _417  and  _418
REMARK  171  A    between atoms: _417  and  _420
REMARK  172  A    between atoms: _420  and  _421
REMARK  173  A    between atoms: _424  and  _426
REMARK  174  A    between atoms: _426  and  _427
REMARK  175  A    between atoms: _426  and  _429
REMARK  176  A    between atoms: _429  and  _430
REMARK  177  A    between atoms: _430  and  _431
REMARK  178  A    between atoms: _431  and  _432
REMARK  179  A    between atoms: _432  and  _433
REMARK  180  A    between atoms: _437  and  _439
REMARK  181  A    between atoms: _439  and  _440
REMARK  182  A    between atoms: _443  and  _445
REMARK  183  A    between atoms: _445  and  _446
REMARK  184  A    between atoms: _445  and  _448
REMARK  185  A    between atoms: _448  and  _449
REMARK  186  A    between atoms: _455  and  _457
REMARK  187  A    between atoms: _457  and  _458
REMARK  188  A    between atoms: _457  and  _460
REMARK  189  A    between atoms: _461  and  _462
REMARK  190  A    between atoms: _462  and  _463
REMARK  191  A    between atoms: _463  and  _464
REMARK  192  A    between atoms: _468  and  _470
REMARK  193  A    between atoms: _470  and  _471
REMARK  194  A    between atoms: _470  and  _473
REMARK  195  A    between atoms: _474  and  _475
REMARK  196  A    between atoms: _478  and  _480
REMARK  197  A    between atoms: _480  and  _481
REMARK  198  A    between atoms: _480  and  _483
REMARK  199  A    between atoms: _486  and  _488
REMARK  200  A    between atoms: _488  and  _489
REMARK  201  A    between atoms: _488  and  _491
REMARK  202  A    between atoms: _491  and  _492
REMARK  203  A    between atoms: _495  and  _497
REMARK  204  A    between atoms: _497  and  _498
REMARK  205  A    between atoms: _497  and  _500
REMARK  206  A    between atoms: _500  and  _501
REMARK  207  A    between atoms: _503  and  _505
REMARK  208  A    between atoms: _505  and  _506
REMARK  209  A    between atoms: _505  and  _508
REMARK  210  A    between atoms: _511  and  _513
REMARK  211  A    between atoms: _513  and  _514
REMARK  212  A    between atoms: _513  and  _516
REMARK  213  A    between atoms: _516  and  _517
REMARK  214  A    between atoms: _520  and  _522
REMARK  215  A    between atoms: _522  and  _523
REMARK  216  A    between atoms: _522  and  _525
REMARK  217  A    between atoms: _525  and  _526
REMARK                            x       y       z     vdW  Elec       q    Type
REMARK                         _______ _______ _______ _____ _____    ______ ____
ROOT
ATOM      1  O   HOH     1      -4.599   5.832  15.805  0.00  0.00    +0.000 OA
ENDROOT
TORSDOF 0
