REMARK  Name = ../refined-set-2016/2qrm/2qrm_pocket.pdb
REMARK  270 active torsions:
REMARK  status: ('A' for Active; 'I' for Inactive)
REMARK    1  A    between atoms: _1  and  _3
REMARK    2  A    between atoms: _3  and  _4
REMARK    3  A    between atoms: _3  and  _6
REMARK    4  A    between atoms: _6  and  _7
REMARK    5  A    between atoms: _12  and  _13
REMARK    6  A    between atoms: _15  and  _17
REMARK    7  A    between atoms: _17  and  _18
REMARK    8  A    between atoms: _17  and  _20
REMARK    9  A    between atoms: _20  and  _21
REMARK   10  A    between atoms: _24  and  _26
REMARK   11  A    between atoms: _26  and  _27
REMARK   12  A    between atoms: _26  and  _29
REMARK   13  A    between atoms: _29  and  _30
REMARK   14  A    between atoms: _30  and  _31
REMARK   15  A    between atoms: _34  and  _36
REMARK   16  A    between atoms: _36  and  _37
REMARK   17  A    between atoms: _39  and  _41
REMARK   18  A    between atoms: _41  and  _42
REMARK   19  A    between atoms: _41  and  _44
REMARK   20  A    between atoms: _44  and  _45
REMARK   21  A    between atoms: _50  and  _52
REMARK   22  A    between atoms: _52  and  _53
REMARK   23  A    between atoms: _55  and  _57
REMARK   24  A    between atoms: _57  and  _58
REMARK   25  A    between atoms: _60  and  _62
REMARK   26  A    between atoms: _62  and  _63
REMARK   27  A    between atoms: _62  and  _65
REMARK   28  A    between atoms: _65  and  _66
REMARK   29  A    between atoms: _69  and  _71
REMARK   30  A    between atoms: _71  and  _72
REMARK   31  A    between atoms: _74  and  _76
REMARK   32  A    between atoms: _76  and  _77
REMARK   33  A    between atoms: _76  and  _79
REMARK   34  A    between atoms: _79  and  _80
REMARK   35  A    between atoms: _80  and  _81
REMARK   36  A    between atoms: _81  and  _82
REMARK   37  A    between atoms: _91  and  _93
REMARK   38  A    between atoms: _93  and  _94
REMARK   39  A    between atoms: _93  and  _96
REMARK   40  A    between atoms: _96  and  _97
REMARK   41  A    between atoms: _100  and  _102
REMARK   42  A    between atoms: _102  and  _103
REMARK   43  A    between atoms: _106  and  _108
REMARK   44  A    between atoms: _108  and  _109
REMARK   45  A    between atoms: _108  and  _111
REMARK   46  A    between atoms: _111  and  _112
REMARK   47  A    between atoms: _118  and  _120
REMARK   48  A    between atoms: _120  and  _121
REMARK   49  A    between atoms: _120  and  _123
REMARK   50  A    between atoms: _123  and  _124
REMARK   51  A    between atoms: _129  and  _130
REMARK   52  A    between atoms: _132  and  _134
REMARK   53  A    between atoms: _134  and  _135
REMARK   54  A    between atoms: _134  and  _137
REMARK   55  A    between atoms: _137  and  _138
REMARK   56  A    between atoms: _141  and  _143
REMARK   57  A    between atoms: _143  and  _144
REMARK   58  A    between atoms: _143  and  _146
REMARK   59  A    between atoms: _146  and  _147
REMARK   60  A    between atoms: _152  and  _153
REMARK   61  A    between atoms: _156  and  _157
REMARK   62  A    between atoms: _162  and  _164
REMARK   63  A    between atoms: _164  and  _165
REMARK   64  A    between atoms: _164  and  _167
REMARK   65  A    between atoms: _167  and  _168
REMARK   66  A    between atoms: _173  and  _175
REMARK   67  A    between atoms: _175  and  _176
REMARK   68  A    between atoms: _175  and  _178
REMARK   69  A    between atoms: _178  and  _179
REMARK   70  A    between atoms: _182  and  _184
REMARK   71  A    between atoms: _184  and  _185
REMARK   72  A    between atoms: _184  and  _187
REMARK   73  A    between atoms: _187  and  _188
REMARK   74  A    between atoms: _193  and  _195
REMARK   75  A    between atoms: _195  and  _196
REMARK   76  A    between atoms: _195  and  _198
REMARK   77  A    between atoms: _198  and  _199
REMARK   78  A    between atoms: _205  and  _207
REMARK   79  A    between atoms: _207  and  _208
REMARK   80  A    between atoms: _207  and  _210
REMARK   81  A    between atoms: _210  and  _211
REMARK   82  A    between atoms: _217  and  _219
REMARK   83  A    between atoms: _219  and  _220
REMARK   84  A    between atoms: _219  and  _222
REMARK   85  A    between atoms: _222  and  _223
REMARK   86  A    between atoms: _223  and  _224
REMARK   87  A    between atoms: _227  and  _229
REMARK   88  A    between atoms: _229  and  _230
REMARK   89  A    between atoms: _229  and  _232
REMARK   90  A    between atoms: _232  and  _233
REMARK   91  A    between atoms: _233  and  _234
REMARK   92  A    between atoms: _234  and  _235
REMARK   93  A    between atoms: _244  and  _246
REMARK   94  A    between atoms: _246  and  _247
REMARK   95  A    between atoms: _246  and  _249
REMARK   96  A    between atoms: _249  and  _250
REMARK   97  A    between atoms: _250  and  _251
REMARK   98  A    between atoms: _254  and  _256
REMARK   99  A    between atoms: _256  and  _257
REMARK  100  A    between atoms: _256  and  _259
REMARK  101  A    between atoms: _259  and  _260
REMARK  102  A    between atoms: _265  and  _267
REMARK  103  A    between atoms: _267  and  _268
REMARK  104  A    between atoms: _267  and  _270
REMARK  105  A    between atoms: _270  and  _271
REMARK  106  A    between atoms: _274  and  _276
REMARK  107  A    between atoms: _276  and  _277
REMARK  108  A    between atoms: _276  and  _279
REMARK  109  A    between atoms: _279  and  _280
REMARK  110  A    between atoms: _283  and  _285
REMARK  111  A    between atoms: _285  and  _286
REMARK  112  A    between atoms: _285  and  _288
REMARK  113  A    between atoms: _288  and  _289
REMARK  114  A    between atoms: _294  and  _296
REMARK  115  A    between atoms: _296  and  _297
REMARK  116  A    between atoms: _296  and  _299
REMARK  117  A    between atoms: _299  and  _300
REMARK  118  A    between atoms: _303  and  _305
REMARK  119  A    between atoms: _305  and  _306
REMARK  120  A    between atoms: _305  and  _308
REMARK  121  A    between atoms: _308  and  _309
REMARK  122  A    between atoms: _314  and  _316
REMARK  123  A    between atoms: _316  and  _317
REMARK  124  A    between atoms: _316  and  _319
REMARK  125  A    between atoms: _319  and  _320
REMARK  126  A    between atoms: _325  and  _327
REMARK  127  A    between atoms: _327  and  _328
REMARK  128  A    between atoms: _327  and  _330
REMARK  129  A    between atoms: _330  and  _331
REMARK  130  A    between atoms: _334  and  _336
REMARK  131  A    between atoms: _336  and  _337
REMARK  132  A    between atoms: _336  and  _339
REMARK  133  A    between atoms: _342  and  _344
REMARK  134  A    between atoms: _344  and  _345
REMARK  135  A    between atoms: _344  and  _347
REMARK  136  A    between atoms: _347  and  _348
REMARK  137  A    between atoms: _351  and  _353
REMARK  138  A    between atoms: _353  and  _354
REMARK  139  A    between atoms: _353  and  _356
REMARK  140  A    between atoms: _356  and  _357
REMARK  141  A    between atoms: _357  and  _358
REMARK  142  A    between atoms: _361  and  _363
REMARK  143  A    between atoms: _363  and  _364
REMARK  144  A    between atoms: _367  and  _369
REMARK  145  A    between atoms: _369  and  _370
REMARK  146  A    between atoms: _369  and  _372
REMARK  147  A    between atoms: _372  and  _373
REMARK  148  A    between atoms: _376  and  _378
REMARK  149  A    between atoms: _378  and  _379
REMARK  150  A    between atoms: _378  and  _381
REMARK  151  A    between atoms: _381  and  _382
REMARK  152  A    between atoms: _382  and  _383
REMARK  153  A    between atoms: _386  and  _388
REMARK  154  A    between atoms: _388  and  _389
REMARK  155  A    between atoms: _388  and  _391
REMARK  156  A    between atoms: _391  and  _392
REMARK  157  A    between atoms: _397  and  _399
REMARK  158  A    between atoms: _399  and  _400
REMARK  159  A    between atoms: _402  and  _404
REMARK  160  A    between atoms: _404  and  _405
REMARK  161  A    between atoms: _404  and  _407
REMARK  162  A    between atoms: _410  and  _412
REMARK  163  A    between atoms: _412  and  _413
REMARK  164  A    between atoms: _416  and  _418
REMARK  165  A    between atoms: _418  and  _419
REMARK  166  A    between atoms: _418  and  _421
REMARK  167  A    between atoms: _421  and  _422
REMARK  168  A    between atoms: _427  and  _429
REMARK  169  A    between atoms: _429  and  _430
REMARK  170  A    between atoms: _429  and  _432
REMARK  171  A    between atoms: _432  and  _433
REMARK  172  A    between atoms: _433  and  _434
REMARK  173  A    between atoms: _434  and  _435
REMARK  174  A    between atoms: _435  and  _436
REMARK  175  A    between atoms: _440  and  _442
REMARK  176  A    between atoms: _442  and  _443
REMARK  177  A    between atoms: _442  and  _445
REMARK  178  A    between atoms: _445  and  _446
REMARK  179  A    between atoms: _449  and  _451
REMARK  180  A    between atoms: _451  and  _452
REMARK  181  A    between atoms: _451  and  _454
REMARK  182  A    between atoms: _454  and  _455
REMARK  183  A    between atoms: _460  and  _462
REMARK  184  A    between atoms: _462  and  _463
REMARK  185  A    between atoms: _465  and  _467
REMARK  186  A    between atoms: _467  and  _468
REMARK  187  A    between atoms: _467  and  _470
REMARK  188  A    between atoms: _470  and  _471
REMARK  189  A    between atoms: _471  and  _472
REMARK  190  A    between atoms: _472  and  _473
REMARK  191  A    between atoms: _473  and  _474
REMARK  192  A    between atoms: _478  and  _480
REMARK  193  A    between atoms: _480  and  _481
REMARK  194  A    between atoms: _480  and  _483
REMARK  195  A    between atoms: _483  and  _484
REMARK  196  A    between atoms: _484  and  _485
REMARK  197  A    between atoms: _485  and  _486
REMARK  198  A    between atoms: _495  and  _497
REMARK  199  A    between atoms: _497  and  _498
REMARK  200  A    between atoms: _497  and  _500
REMARK  201  A    between atoms: _500  and  _501
REMARK  202  A    between atoms: _506  and  _507
REMARK  203  A    between atoms: _509  and  _511
REMARK  204  A    between atoms: _511  and  _512
REMARK  205  A    between atoms: _511  and  _514
REMARK  206  A    between atoms: _514  and  _515
REMARK  207  A    between atoms: _515  and  _516
REMARK  208  A    between atoms: _516  and  _517
REMARK  209  A    between atoms: _517  and  _518
REMARK  210  A    between atoms: _522  and  _524
REMARK  211  A    between atoms: _524  and  _525
REMARK  212  A    between atoms: _524  and  _527
REMARK  213  A    between atoms: _527  and  _528
REMARK  214  A    between atoms: _530  and  _532
REMARK  215  A    between atoms: _532  and  _533
REMARK  216  A    between atoms: _532  and  _535
REMARK  217  A    between atoms: _535  and  _536
REMARK  218  A    between atoms: _539  and  _541
REMARK  219  A    between atoms: _541  and  _542
REMARK  220  A    between atoms: _541  and  _544
REMARK  221  A    between atoms: _544  and  _545
REMARK  222  A    between atoms: _545  and  _546
REMARK  223  A    between atoms: _549  and  _551
REMARK  224  A    between atoms: _551  and  _552
REMARK  225  A    between atoms: _555  and  _557
REMARK  226  A    between atoms: _557  and  _558
REMARK  227  A    between atoms: _557  and  _560
REMARK  228  A    between atoms: _560  and  _561
REMARK  229  A    between atoms: _563  and  _565
REMARK  230  A    between atoms: _565  and  _566
REMARK  231  A    between atoms: _568  and  _570
REMARK  232  A    between atoms: _570  and  _571
REMARK  233  A    between atoms: _570  and  _573
REMARK  234  A    between atoms: _573  and  _574
REMARK  235  A    between atoms: _577  and  _579
REMARK  236  A    between atoms: _579  and  _580
REMARK  237  A    between atoms: _582  and  _584
REMARK  238  A    between atoms: _584  and  _585
REMARK  239  A    between atoms: _584  and  _587
REMARK  240  A    between atoms: _587  and  _588
REMARK  241  A    between atoms: _593  and  _595
REMARK  242  A    between atoms: _595  and  _596
REMARK  243  A    between atoms: _595  and  _598
REMARK  244  A    between atoms: _598  and  _599
REMARK  245  A    between atoms: _599  and  _600
REMARK  246  A    between atoms: _607  and  _608
REMARK  247  A    between atoms: _608  and  _624
REMARK  248  A    between atoms: _609  and  _611
REMARK  249  A    between atoms: _611  and  _612
REMARK  250  A    between atoms: _612  and  _613
REMARK  251  A    between atoms: _617  and  _619
REMARK  252  A    between atoms: _619  and  _620
REMARK  253  A    between atoms: _619  and  _627
REMARK  254  A    between atoms: _620  and  _621
REMARK  255  A    between atoms: _621  and  _622
REMARK  256  A    between atoms: _622  and  _623
REMARK  257  A    between atoms: _623  and  _624
REMARK  258  A    between atoms: _629  and  _631
REMARK  259  A    between atoms: _631  and  _632
REMARK  260  A    between atoms: _631  and  _634
REMARK  261  A    between atoms: _634  and  _635
REMARK  262  A    between atoms: _638  and  _640
REMARK  263  A    between atoms: _640  and  _641
REMARK  264  A    between atoms: _643  and  _645
REMARK  265  A    between atoms: _645  and  _646
REMARK  266  A    between atoms: _649  and  _651
REMARK  267  A    between atoms: _651  and  _652
REMARK  268  A    between atoms: _651  and  _654
REMARK  269  A    between atoms: _654  and  _655
REMARK  270  A    between atoms: _660  and  _661
REMARK                            x       y       z     vdW  Elec       q    Type
REMARK                         _______ _______ _______ _____ _____    ______ ____
ROOT
ATOM      1  CG  TYR A   1      33.498  11.408  36.437  0.00  0.00    -0.020 A 
ATOM      2  CD2 TYR A   1      33.056  12.726  36.547  0.00  0.00    -0.001 A 
ATOM      3  CE2 TYR A   1      33.076  13.585  35.449  0.00  0.00    +0.036 A 
ATOM      4  CZ  TYR A   1      33.533  13.119  34.228  0.00  0.00    +0.134 A 
ATOM      5  CE1 TYR A   1      33.975  11.816  34.093  0.00  0.00    +0.036 A 
ATOM      6  CD1 TYR A   1      33.956  10.967  35.195  0.00  0.00    -0.001 A 
ENDROOT
BRANCH   4   7
ATOM      7  OH  TYR A   1      33.556  13.951  33.129  0.00  0.00    -0.506 OA
ATOM      8  HH  TYR A   1      34.138  14.729  33.318  0.00  0.00    +0.292 HD
ENDBRANCH   4   7
BRANCH   1   9
ATOM      9  CB  TYR A   1      33.486  10.477  37.629  0.00  0.00    +0.051 C 
BRANCH   9  10
ATOM     10  CA  TYR A   1      34.816  10.423  38.387  0.00  0.00    +0.137 C 
BRANCH  10  11
ATOM     11  N   TYR A   1      34.853   9.271  39.272  0.00  0.00    -0.239 NA
ATOM     12  H   TYR A   1      34.004   9.033  39.824  0.00  0.00    +0.142 HD
ENDBRANCH  10  11
BRANCH  10  13
ATOM     13  C   TYR A   1      35.009  11.683  39.221  0.00  0.00    +0.224 C 
ATOM     14  O   TYR A   1      34.108  12.093  39.955  0.00  0.00    -0.287 OA
ENDBRANCH  10  13
ENDBRANCH   9  10
ENDBRANCH   1   9
TORSDOF 5
REMARK  Name = ../refined-set-2016/2qrm/2qrm_pocket.pdb
REMARK  270 active torsions:
REMARK  status: ('A' for Active; 'I' for Inactive)
REMARK    1  A    between atoms: _1  and  _3
REMARK    2  A    between atoms: _3  and  _4
REMARK    3  A    between atoms: _3  and  _6
REMARK    4  A    between atoms: _6  and  _7
REMARK    5  A    between atoms: _12  and  _13
REMARK    6  A    between atoms: _15  and  _17
REMARK    7  A    between atoms: _17  and  _18
REMARK    8  A    between atoms: _17  and  _20
REMARK    9  A    between atoms: _20  and  _21
REMARK   10  A    between atoms: _24  and  _26
REMARK   11  A    between atoms: _26  and  _27
REMARK   12  A    between atoms: _26  and  _29
REMARK   13  A    between atoms: _29  and  _30
REMARK   14  A    between atoms: _30  and  _31
REMARK   15  A    between atoms: _34  and  _36
REMARK   16  A    between atoms: _36  and  _37
REMARK   17  A    between atoms: _39  and  _41
REMARK   18  A    between atoms: _41  and  _42
REMARK   19  A    between atoms: _41  and  _44
REMARK   20  A    between atoms: _44  and  _45
REMARK   21  A    between atoms: _50  and  _52
REMARK   22  A    between atoms: _52  and  _53
REMARK   23  A    between atoms: _55  and  _57
REMARK   24  A    between atoms: _57  and  _58
REMARK   25  A    between atoms: _60  and  _62
REMARK   26  A    between atoms: _62  and  _63
REMARK   27  A    between atoms: _62  and  _65
REMARK   28  A    between atoms: _65  and  _66
REMARK   29  A    between atoms: _69  and  _71
REMARK   30  A    between atoms: _71  and  _72
REMARK   31  A    between atoms: _74  and  _76
REMARK   32  A    between atoms: _76  and  _77
REMARK   33  A    between atoms: _76  and  _79
REMARK   34  A    between atoms: _79  and  _80
REMARK   35  A    between atoms: _80  and  _81
REMARK   36  A    between atoms: _81  and  _82
REMARK   37  A    between atoms: _91  and  _93
REMARK   38  A    between atoms: _93  and  _94
REMARK   39  A    between atoms: _93  and  _96
REMARK   40  A    between atoms: _96  and  _97
REMARK   41  A    between atoms: _100  and  _102
REMARK   42  A    between atoms: _102  and  _103
REMARK   43  A    between atoms: _106  and  _108
REMARK   44  A    between atoms: _108  and  _109
REMARK   45  A    between atoms: _108  and  _111
REMARK   46  A    between atoms: _111  and  _112
REMARK   47  A    between atoms: _118  and  _120
REMARK   48  A    between atoms: _120  and  _121
REMARK   49  A    between atoms: _120  and  _123
REMARK   50  A    between atoms: _123  and  _124
REMARK   51  A    between atoms: _129  and  _130
REMARK   52  A    between atoms: _132  and  _134
REMARK   53  A    between atoms: _134  and  _135
REMARK   54  A    between atoms: _134  and  _137
REMARK   55  A    between atoms: _137  and  _138
REMARK   56  A    between atoms: _141  and  _143
REMARK   57  A    between atoms: _143  and  _144
REMARK   58  A    between atoms: _143  and  _146
REMARK   59  A    between atoms: _146  and  _147
REMARK   60  A    between atoms: _152  and  _153
REMARK   61  A    between atoms: _156  and  _157
REMARK   62  A    between atoms: _162  and  _164
REMARK   63  A    between atoms: _164  and  _165
REMARK   64  A    between atoms: _164  and  _167
REMARK   65  A    between atoms: _167  and  _168
REMARK   66  A    between atoms: _173  and  _175
REMARK   67  A    between atoms: _175  and  _176
REMARK   68  A    between atoms: _175  and  _178
REMARK   69  A    between atoms: _178  and  _179
REMARK   70  A    between atoms: _182  and  _184
REMARK   71  A    between atoms: _184  and  _185
REMARK   72  A    between atoms: _184  and  _187
REMARK   73  A    between atoms: _187  and  _188
REMARK   74  A    between atoms: _193  and  _195
REMARK   75  A    between atoms: _195  and  _196
REMARK   76  A    between atoms: _195  and  _198
REMARK   77  A    between atoms: _198  and  _199
REMARK   78  A    between atoms: _205  and  _207
REMARK   79  A    between atoms: _207  and  _208
REMARK   80  A    between atoms: _207  and  _210
REMARK   81  A    between atoms: _210  and  _211
REMARK   82  A    between atoms: _217  and  _219
REMARK   83  A    between atoms: _219  and  _220
REMARK   84  A    between atoms: _219  and  _222
REMARK   85  A    between atoms: _222  and  _223
REMARK   86  A    between atoms: _223  and  _224
REMARK   87  A    between atoms: _227  and  _229
REMARK   88  A    between atoms: _229  and  _230
REMARK   89  A    between atoms: _229  and  _232
REMARK   90  A    between atoms: _232  and  _233
REMARK   91  A    between atoms: _233  and  _234
REMARK   92  A    between atoms: _234  and  _235
REMARK   93  A    between atoms: _244  and  _246
REMARK   94  A    between atoms: _246  and  _247
REMARK   95  A    between atoms: _246  and  _249
REMARK   96  A    between atoms: _249  and  _250
REMARK   97  A    between atoms: _250  and  _251
REMARK   98  A    between atoms: _254  and  _256
REMARK   99  A    between atoms: _256  and  _257
REMARK  100  A    between atoms: _256  and  _259
REMARK  101  A    between atoms: _259  and  _260
REMARK  102  A    between atoms: _265  and  _267
REMARK  103  A    between atoms: _267  and  _268
REMARK  104  A    between atoms: _267  and  _270
REMARK  105  A    between atoms: _270  and  _271
REMARK  106  A    between atoms: _274  and  _276
REMARK  107  A    between atoms: _276  and  _277
REMARK  108  A    between atoms: _276  and  _279
REMARK  109  A    between atoms: _279  and  _280
REMARK  110  A    between atoms: _283  and  _285
REMARK  111  A    between atoms: _285  and  _286
REMARK  112  A    between atoms: _285  and  _288
REMARK  113  A    between atoms: _288  and  _289
REMARK  114  A    between atoms: _294  and  _296
REMARK  115  A    between atoms: _296  and  _297
REMARK  116  A    between atoms: _296  and  _299
REMARK  117  A    between atoms: _299  and  _300
REMARK  118  A    between atoms: _303  and  _305
REMARK  119  A    between atoms: _305  and  _306
REMARK  120  A    between atoms: _305  and  _308
REMARK  121  A    between atoms: _308  and  _309
REMARK  122  A    between atoms: _314  and  _316
REMARK  123  A    between atoms: _316  and  _317
REMARK  124  A    between atoms: _316  and  _319
REMARK  125  A    between atoms: _319  and  _320
REMARK  126  A    between atoms: _325  and  _327
REMARK  127  A    between atoms: _327  and  _328
REMARK  128  A    between atoms: _327  and  _330
REMARK  129  A    between atoms: _330  and  _331
REMARK  130  A    between atoms: _334  and  _336
REMARK  131  A    between atoms: _336  and  _337
REMARK  132  A    between atoms: _336  and  _339
REMARK  133  A    between atoms: _342  and  _344
REMARK  134  A    between atoms: _344  and  _345
REMARK  135  A    between atoms: _344  and  _347
REMARK  136  A    between atoms: _347  and  _348
REMARK  137  A    between atoms: _351  and  _353
REMARK  138  A    between atoms: _353  and  _354
REMARK  139  A    between atoms: _353  and  _356
REMARK  140  A    between atoms: _356  and  _357
REMARK  141  A    between atoms: _357  and  _358
REMARK  142  A    between atoms: _361  and  _363
REMARK  143  A    between atoms: _363  and  _364
REMARK  144  A    between atoms: _367  and  _369
REMARK  145  A    between atoms: _369  and  _370
REMARK  146  A    between atoms: _369  and  _372
REMARK  147  A    between atoms: _372  and  _373
REMARK  148  A    between atoms: _376  and  _378
REMARK  149  A    between atoms: _378  and  _379
REMARK  150  A    between atoms: _378  and  _381
REMARK  151  A    between atoms: _381  and  _382
REMARK  152  A    between atoms: _382  and  _383
REMARK  153  A    between atoms: _386  and  _388
REMARK  154  A    between atoms: _388  and  _389
REMARK  155  A    between atoms: _388  and  _391
REMARK  156  A    between atoms: _391  and  _392
REMARK  157  A    between atoms: _397  and  _399
REMARK  158  A    between atoms: _399  and  _400
REMARK  159  A    between atoms: _402  and  _404
REMARK  160  A    between atoms: _404  and  _405
REMARK  161  A    between atoms: _404  and  _407
REMARK  162  A    between atoms: _410  and  _412
REMARK  163  A    between atoms: _412  and  _413
REMARK  164  A    between atoms: _416  and  _418
REMARK  165  A    between atoms: _418  and  _419
REMARK  166  A    between atoms: _418  and  _421
REMARK  167  A    between atoms: _421  and  _422
REMARK  168  A    between atoms: _427  and  _429
REMARK  169  A    between atoms: _429  and  _430
REMARK  170  A    between atoms: _429  and  _432
REMARK  171  A    between atoms: _432  and  _433
REMARK  172  A    between atoms: _433  and  _434
REMARK  173  A    between atoms: _434  and  _435
REMARK  174  A    between atoms: _435  and  _436
REMARK  175  A    between atoms: _440  and  _442
REMARK  176  A    between atoms: _442  and  _443
REMARK  177  A    between atoms: _442  and  _445
REMARK  178  A    between atoms: _445  and  _446
REMARK  179  A    between atoms: _449  and  _451
REMARK  180  A    between atoms: _451  and  _452
REMARK  181  A    between atoms: _451  and  _454
REMARK  182  A    between atoms: _454  and  _455
REMARK  183  A    between atoms: _460  and  _462
REMARK  184  A    between atoms: _462  and  _463
REMARK  185  A    between atoms: _465  and  _467
REMARK  186  A    between atoms: _467  and  _468
REMARK  187  A    between atoms: _467  and  _470
REMARK  188  A    between atoms: _470  and  _471
REMARK  189  A    between atoms: _471  and  _472
REMARK  190  A    between atoms: _472  and  _473
REMARK  191  A    between atoms: _473  and  _474
REMARK  192  A    between atoms: _478  and  _480
REMARK  193  A    between atoms: _480  and  _481
REMARK  194  A    between atoms: _480  and  _483
REMARK  195  A    between atoms: _483  and  _484
REMARK  196  A    between atoms: _484  and  _485
REMARK  197  A    between atoms: _485  and  _486
REMARK  198  A    between atoms: _495  and  _497
REMARK  199  A    between atoms: _497  and  _498
REMARK  200  A    between atoms: _497  and  _500
REMARK  201  A    between atoms: _500  and  _501
REMARK  202  A    between atoms: _506  and  _507
REMARK  203  A    between atoms: _509  and  _511
REMARK  204  A    between atoms: _511  and  _512
REMARK  205  A    between atoms: _511  and  _514
REMARK  206  A    between atoms: _514  and  _515
REMARK  207  A    between atoms: _515  and  _516
REMARK  208  A    between atoms: _516  and  _517
REMARK  209  A    between atoms: _517  and  _518
REMARK  210  A    between atoms: _522  and  _524
REMARK  211  A    between atoms: _524  and  _525
REMARK  212  A    between atoms: _524  and  _527
REMARK  213  A    between atoms: _527  and  _528
REMARK  214  A    between atoms: _530  and  _532
REMARK  215  A    between atoms: _532  and  _533
REMARK  216  A    between atoms: _532  and  _535
REMARK  217  A    between atoms: _535  and  _536
REMARK  218  A    between atoms: _539  and  _541
REMARK  219  A    between atoms: _541  and  _542
REMARK  220  A    between atoms: _541  and  _544
REMARK  221  A    between atoms: _544  and  _545
REMARK  222  A    between atoms: _545  and  _546
REMARK  223  A    between atoms: _549  and  _551
REMARK  224  A    between atoms: _551  and  _552
REMARK  225  A    between atoms: _555  and  _557
REMARK  226  A    between atoms: _557  and  _558
REMARK  227  A    between atoms: _557  and  _560
REMARK  228  A    between atoms: _560  and  _561
REMARK  229  A    between atoms: _563  and  _565
REMARK  230  A    between atoms: _565  and  _566
REMARK  231  A    between atoms: _568  and  _570
REMARK  232  A    between atoms: _570  and  _571
REMARK  233  A    between atoms: _570  and  _573
REMARK  234  A    between atoms: _573  and  _574
REMARK  235  A    between atoms: _577  and  _579
REMARK  236  A    between atoms: _579  and  _580
REMARK  237  A    between atoms: _582  and  _584
REMARK  238  A    between atoms: _584  and  _585
REMARK  239  A    between atoms: _584  and  _587
REMARK  240  A    between atoms: _587  and  _588
REMARK  241  A    between atoms: _593  and  _595
REMARK  242  A    between atoms: _595  and  _596
REMARK  243  A    between atoms: _595  and  _598
REMARK  244  A    between atoms: _598  and  _599
REMARK  245  A    between atoms: _599  and  _600
REMARK  246  A    between atoms: _607  and  _608
REMARK  247  A    between atoms: _608  and  _624
REMARK  248  A    between atoms: _609  and  _611
REMARK  249  A    between atoms: _611  and  _612
REMARK  250  A    between atoms: _612  and  _613
REMARK  251  A    between atoms: _617  and  _619
REMARK  252  A    between atoms: _619  and  _620
REMARK  253  A    between atoms: _619  and  _627
REMARK  254  A    between atoms: _620  and  _621
REMARK  255  A    between atoms: _621  and  _622
REMARK  256  A    between atoms: _622  and  _623
REMARK  257  A    between atoms: _623  and  _624
REMARK  258  A    between atoms: _629  and  _631
REMARK  259  A    between atoms: _631  and  _632
REMARK  260  A    between atoms: _631  and  _634
REMARK  261  A    between atoms: _634  and  _635
REMARK  262  A    between atoms: _638  and  _640
REMARK  263  A    between atoms: _640  and  _641
REMARK  264  A    between atoms: _643  and  _645
REMARK  265  A    between atoms: _645  and  _646
REMARK  266  A    between atoms: _649  and  _651
REMARK  267  A    between atoms: _651  and  _652
REMARK  268  A    between atoms: _651  and  _654
REMARK  269  A    between atoms: _654  and  _655
REMARK  270  A    between atoms: _660  and  _661
REMARK                            x       y       z     vdW  Elec       q    Type
REMARK                         _______ _______ _______ _____ _____    ______ ____
ROOT
ATOM      1  C   LEU A   1      33.770  20.902  40.300  0.00  0.00    +0.238 C 
ATOM      2  O   LEU A   1      33.321  21.796  41.027  0.00  0.00    -0.274 OA
ATOM      3  N   GLU A   2      33.085  20.359  39.292  0.00  0.00    -0.298 N 
ATOM      4  H   GLU A   2      33.518  19.584  38.751  0.00  0.00    +0.150 HD
ENDROOT
BRANCH   1   5
ATOM      5  CA  LEU A   1      35.169  20.339  40.540  0.00  0.00    +0.145 C 
BRANCH   5   6
ATOM      6  N   LEU A   1      35.416  19.194  39.683  0.00  0.00    -0.238 NA
ATOM      7  H   LEU A   1      35.925  19.319  38.785  0.00  0.00    +0.142 HD
ENDBRANCH   5   6
BRANCH   5   8
ATOM      8  CB  LEU A   1      36.242  21.419  40.344  0.00  0.00    +0.026 C 
BRANCH   8   9
ATOM      9  CG  LEU A   1      37.514  21.290  41.199  0.00  0.00    +0.002 C 
ATOM     10  CD2 LEU A   1      37.231  21.693  42.633  0.00  0.00    +0.000 C 
ATOM     11  CD1 LEU A   1      38.135  19.890  41.153  0.00  0.00    +0.000 C 
ENDBRANCH   8   9
ENDBRANCH   5   8
ENDBRANCH   1   5
BRANCH   3  12
ATOM     12  CA  GLU A   2      31.743  20.818  38.921  0.00  0.00    +0.137 C 
BRANCH  12  13
ATOM     13  C   GLU A   2      30.785  19.665  38.623  0.00  0.00    +0.227 C 
ATOM     14  O   GLU A   2      31.141  18.721  37.918  0.00  0.00    -0.286 OA
ENDBRANCH  12  13
BRANCH  12  15
ATOM     15  CB  GLU A   2      31.807  21.747  37.702  0.00  0.00    +0.039 C 
BRANCH  15  16
ATOM     16  CG  GLU A   2      32.627  23.021  37.910  0.00  0.00    +0.116 C 
BRANCH  16  17
ATOM     17  CD  GLU A   2      32.524  23.986  36.742  0.00  0.00    +0.365 C 
ATOM     18  OE2 GLU A   2      33.398  24.868  36.632  0.00  0.00    -0.246 OA
ATOM     19  OE1 GLU A   2      31.573  23.871  35.937  0.00  0.00    -0.246 OA
ENDBRANCH  16  17
ENDBRANCH  15  16
ENDBRANCH  12  15
ENDBRANCH   3  12
TORSDOF 9
REMARK  Name = ../refined-set-2016/2qrm/2qrm_pocket.pdb
REMARK  270 active torsions:
REMARK  status: ('A' for Active; 'I' for Inactive)
REMARK    1  A    between atoms: _1  and  _3
REMARK    2  A    between atoms: _3  and  _4
REMARK    3  A    between atoms: _3  and  _6
REMARK    4  A    between atoms: _6  and  _7
REMARK    5  A    between atoms: _12  and  _13
REMARK    6  A    between atoms: _15  and  _17
REMARK    7  A    between atoms: _17  and  _18
REMARK    8  A    between atoms: _17  and  _20
REMARK    9  A    between atoms: _20  and  _21
REMARK   10  A    between atoms: _24  and  _26
REMARK   11  A    between atoms: _26  and  _27
REMARK   12  A    between atoms: _26  and  _29
REMARK   13  A    between atoms: _29  and  _30
REMARK   14  A    between atoms: _30  and  _31
REMARK   15  A    between atoms: _34  and  _36
REMARK   16  A    between atoms: _36  and  _37
REMARK   17  A    between atoms: _39  and  _41
REMARK   18  A    between atoms: _41  and  _42
REMARK   19  A    between atoms: _41  and  _44
REMARK   20  A    between atoms: _44  and  _45
REMARK   21  A    between atoms: _50  and  _52
REMARK   22  A    between atoms: _52  and  _53
REMARK   23  A    between atoms: _55  and  _57
REMARK   24  A    between atoms: _57  and  _58
REMARK   25  A    between atoms: _60  and  _62
REMARK   26  A    between atoms: _62  and  _63
REMARK   27  A    between atoms: _62  and  _65
REMARK   28  A    between atoms: _65  and  _66
REMARK   29  A    between atoms: _69  and  _71
REMARK   30  A    between atoms: _71  and  _72
REMARK   31  A    between atoms: _74  and  _76
REMARK   32  A    between atoms: _76  and  _77
REMARK   33  A    between atoms: _76  and  _79
REMARK   34  A    between atoms: _79  and  _80
REMARK   35  A    between atoms: _80  and  _81
REMARK   36  A    between atoms: _81  and  _82
REMARK   37  A    between atoms: _91  and  _93
REMARK   38  A    between atoms: _93  and  _94
REMARK   39  A    between atoms: _93  and  _96
REMARK   40  A    between atoms: _96  and  _97
REMARK   41  A    between atoms: _100  and  _102
REMARK   42  A    between atoms: _102  and  _103
REMARK   43  A    between atoms: _106  and  _108
REMARK   44  A    between atoms: _108  and  _109
REMARK   45  A    between atoms: _108  and  _111
REMARK   46  A    between atoms: _111  and  _112
REMARK   47  A    between atoms: _118  and  _120
REMARK   48  A    between atoms: _120  and  _121
REMARK   49  A    between atoms: _120  and  _123
REMARK   50  A    between atoms: _123  and  _124
REMARK   51  A    between atoms: _129  and  _130
REMARK   52  A    between atoms: _132  and  _134
REMARK   53  A    between atoms: _134  and  _135
REMARK   54  A    between atoms: _134  and  _137
REMARK   55  A    between atoms: _137  and  _138
REMARK   56  A    between atoms: _141  and  _143
REMARK   57  A    between atoms: _143  and  _144
REMARK   58  A    between atoms: _143  and  _146
REMARK   59  A    between atoms: _146  and  _147
REMARK   60  A    between atoms: _152  and  _153
REMARK   61  A    between atoms: _156  and  _157
REMARK   62  A    between atoms: _162  and  _164
REMARK   63  A    between atoms: _164  and  _165
REMARK   64  A    between atoms: _164  and  _167
REMARK   65  A    between atoms: _167  and  _168
REMARK   66  A    between atoms: _173  and  _175
REMARK   67  A    between atoms: _175  and  _176
REMARK   68  A    between atoms: _175  and  _178
REMARK   69  A    between atoms: _178  and  _179
REMARK   70  A    between atoms: _182  and  _184
REMARK   71  A    between atoms: _184  and  _185
REMARK   72  A    between atoms: _184  and  _187
REMARK   73  A    between atoms: _187  and  _188
REMARK   74  A    between atoms: _193  and  _195
REMARK   75  A    between atoms: _195  and  _196
REMARK   76  A    between atoms: _195  and  _198
REMARK   77  A    between atoms: _198  and  _199
REMARK   78  A    between atoms: _205  and  _207
REMARK   79  A    between atoms: _207  and  _208
REMARK   80  A    between atoms: _207  and  _210
REMARK   81  A    between atoms: _210  and  _211
REMARK   82  A    between atoms: _217  and  _219
REMARK   83  A    between atoms: _219  and  _220
REMARK   84  A    between atoms: _219  and  _222
REMARK   85  A    between atoms: _222  and  _223
REMARK   86  A    between atoms: _223  and  _224
REMARK   87  A    between atoms: _227  and  _229
REMARK   88  A    between atoms: _229  and  _230
REMARK   89  A    between atoms: _229  and  _232
REMARK   90  A    between atoms: _232  and  _233
REMARK   91  A    between atoms: _233  and  _234
REMARK   92  A    between atoms: _234  and  _235
REMARK   93  A    between atoms: _244  and  _246
REMARK   94  A    between atoms: _246  and  _247
REMARK   95  A    between atoms: _246  and  _249
REMARK   96  A    between atoms: _249  and  _250
REMARK   97  A    between atoms: _250  and  _251
REMARK   98  A    between atoms: _254  and  _256
REMARK   99  A    between atoms: _256  and  _257
REMARK  100  A    between atoms: _256  and  _259
REMARK  101  A    between atoms: _259  and  _260
REMARK  102  A    between atoms: _265  and  _267
REMARK  103  A    between atoms: _267  and  _268
REMARK  104  A    between atoms: _267  and  _270
REMARK  105  A    between atoms: _270  and  _271
REMARK  106  A    between atoms: _274  and  _276
REMARK  107  A    between atoms: _276  and  _277
REMARK  108  A    between atoms: _276  and  _279
REMARK  109  A    between atoms: _279  and  _280
REMARK  110  A    between atoms: _283  and  _285
REMARK  111  A    between atoms: _285  and  _286
REMARK  112  A    between atoms: _285  and  _288
REMARK  113  A    between atoms: _288  and  _289
REMARK  114  A    between atoms: _294  and  _296
REMARK  115  A    between atoms: _296  and  _297
REMARK  116  A    between atoms: _296  and  _299
REMARK  117  A    between atoms: _299  and  _300
REMARK  118  A    between atoms: _303  and  _305
REMARK  119  A    between atoms: _305  and  _306
REMARK  120  A    between atoms: _305  and  _308
REMARK  121  A    between atoms: _308  and  _309
REMARK  122  A    between atoms: _314  and  _316
REMARK  123  A    between atoms: _316  and  _317
REMARK  124  A    between atoms: _316  and  _319
REMARK  125  A    between atoms: _319  and  _320
REMARK  126  A    between atoms: _325  and  _327
REMARK  127  A    between atoms: _327  and  _328
REMARK  128  A    between atoms: _327  and  _330
REMARK  129  A    between atoms: _330  and  _331
REMARK  130  A    between atoms: _334  and  _336
REMARK  131  A    between atoms: _336  and  _337
REMARK  132  A    between atoms: _336  and  _339
REMARK  133  A    between atoms: _342  and  _344
REMARK  134  A    between atoms: _344  and  _345
REMARK  135  A    between atoms: _344  and  _347
REMARK  136  A    between atoms: _347  and  _348
REMARK  137  A    between atoms: _351  and  _353
REMARK  138  A    between atoms: _353  and  _354
REMARK  139  A    between atoms: _353  and  _356
REMARK  140  A    between atoms: _356  and  _357
REMARK  141  A    between atoms: _357  and  _358
REMARK  142  A    between atoms: _361  and  _363
REMARK  143  A    between atoms: _363  and  _364
REMARK  144  A    between atoms: _367  and  _369
REMARK  145  A    between atoms: _369  and  _370
REMARK  146  A    between atoms: _369  and  _372
REMARK  147  A    between atoms: _372  and  _373
REMARK  148  A    between atoms: _376  and  _378
REMARK  149  A    between atoms: _378  and  _379
REMARK  150  A    between atoms: _378  and  _381
REMARK  151  A    between atoms: _381  and  _382
REMARK  152  A    between atoms: _382  and  _383
REMARK  153  A    between atoms: _386  and  _388
REMARK  154  A    between atoms: _388  and  _389
REMARK  155  A    between atoms: _388  and  _391
REMARK  156  A    between atoms: _391  and  _392
REMARK  157  A    between atoms: _397  and  _399
REMARK  158  A    between atoms: _399  and  _400
REMARK  159  A    between atoms: _402  and  _404
REMARK  160  A    between atoms: _404  and  _405
REMARK  161  A    between atoms: _404  and  _407
REMARK  162  A    between atoms: _410  and  _412
REMARK  163  A    between atoms: _412  and  _413
REMARK  164  A    between atoms: _416  and  _418
REMARK  165  A    between atoms: _418  and  _419
REMARK  166  A    between atoms: _418  and  _421
REMARK  167  A    between atoms: _421  and  _422
REMARK  168  A    between atoms: _427  and  _429
REMARK  169  A    between atoms: _429  and  _430
REMARK  170  A    between atoms: _429  and  _432
REMARK  171  A    between atoms: _432  and  _433
REMARK  172  A    between atoms: _433  and  _434
REMARK  173  A    between atoms: _434  and  _435
REMARK  174  A    between atoms: _435  and  _436
REMARK  175  A    between atoms: _440  and  _442
REMARK  176  A    between atoms: _442  and  _443
REMARK  177  A    between atoms: _442  and  _445
REMARK  178  A    between atoms: _445  and  _446
REMARK  179  A    between atoms: _449  and  _451
REMARK  180  A    between atoms: _451  and  _452
REMARK  181  A    between atoms: _451  and  _454
REMARK  182  A    between atoms: _454  and  _455
REMARK  183  A    between atoms: _460  and  _462
REMARK  184  A    between atoms: _462  and  _463
REMARK  185  A    between atoms: _465  and  _467
REMARK  186  A    between atoms: _467  and  _468
REMARK  187  A    between atoms: _467  and  _470
REMARK  188  A    between atoms: _470  and  _471
REMARK  189  A    between atoms: _471  and  _472
REMARK  190  A    between atoms: _472  and  _473
REMARK  191  A    between atoms: _473  and  _474
REMARK  192  A    between atoms: _478  and  _480
REMARK  193  A    between atoms: _480  and  _481
REMARK  194  A    between atoms: _480  and  _483
REMARK  195  A    between atoms: _483  and  _484
REMARK  196  A    between atoms: _484  and  _485
REMARK  197  A    between atoms: _485  and  _486
REMARK  198  A    between atoms: _495  and  _497
REMARK  199  A    between atoms: _497  and  _498
REMARK  200  A    between atoms: _497  and  _500
REMARK  201  A    between atoms: _500  and  _501
REMARK  202  A    between atoms: _506  and  _507
REMARK  203  A    between atoms: _509  and  _511
REMARK  204  A    between atoms: _511  and  _512
REMARK  205  A    between atoms: _511  and  _514
REMARK  206  A    between atoms: _514  and  _515
REMARK  207  A    between atoms: _515  and  _516
REMARK  208  A    between atoms: _516  and  _517
REMARK  209  A    between atoms: _517  and  _518
REMARK  210  A    between atoms: _522  and  _524
REMARK  211  A    between atoms: _524  and  _525
REMARK  212  A    between atoms: _524  and  _527
REMARK  213  A    between atoms: _527  and  _528
REMARK  214  A    between atoms: _530  and  _532
REMARK  215  A    between atoms: _532  and  _533
REMARK  216  A    between atoms: _532  and  _535
REMARK  217  A    between atoms: _535  and  _536
REMARK  218  A    between atoms: _539  and  _541
REMARK  219  A    between atoms: _541  and  _542
REMARK  220  A    between atoms: _541  and  _544
REMARK  221  A    between atoms: _544  and  _545
REMARK  222  A    between atoms: _545  and  _546
REMARK  223  A    between atoms: _549  and  _551
REMARK  224  A    between atoms: _551  and  _552
REMARK  225  A    between atoms: _555  and  _557
REMARK  226  A    between atoms: _557  and  _558
REMARK  227  A    between atoms: _557  and  _560
REMARK  228  A    between atoms: _560  and  _561
REMARK  229  A    between atoms: _563  and  _565
REMARK  230  A    between atoms: _565  and  _566
REMARK  231  A    between atoms: _568  and  _570
REMARK  232  A    between atoms: _570  and  _571
REMARK  233  A    between atoms: _570  and  _573
REMARK  234  A    between atoms: _573  and  _574
REMARK  235  A    between atoms: _577  and  _579
REMARK  236  A    between atoms: _579  and  _580
REMARK  237  A    between atoms: _582  and  _584
REMARK  238  A    between atoms: _584  and  _585
REMARK  239  A    between atoms: _584  and  _587
REMARK  240  A    between atoms: _587  and  _588
REMARK  241  A    between atoms: _593  and  _595
REMARK  242  A    between atoms: _595  and  _596
REMARK  243  A    between atoms: _595  and  _598
REMARK  244  A    between atoms: _598  and  _599
REMARK  245  A    between atoms: _599  and  _600
REMARK  246  A    between atoms: _607  and  _608
REMARK  247  A    between atoms: _608  and  _624
REMARK  248  A    between atoms: _609  and  _611
REMARK  249  A    between atoms: _611  and  _612
REMARK  250  A    between atoms: _612  and  _613
REMARK  251  A    between atoms: _617  and  _619
REMARK  252  A    between atoms: _619  and  _620
REMARK  253  A    between atoms: _619  and  _627
REMARK  254  A    between atoms: _620  and  _621
REMARK  255  A    between atoms: _621  and  _622
REMARK  256  A    between atoms: _622  and  _623
REMARK  257  A    between atoms: _623  and  _624
REMARK  258  A    between atoms: _629  and  _631
REMARK  259  A    between atoms: _631  and  _632
REMARK  260  A    between atoms: _631  and  _634
REMARK  261  A    between atoms: _634  and  _635
REMARK  262  A    between atoms: _638  and  _640
REMARK  263  A    between atoms: _640  and  _641
REMARK  264  A    between atoms: _643  and  _645
REMARK  265  A    between atoms: _645  and  _646
REMARK  266  A    between atoms: _649  and  _651
REMARK  267  A    between atoms: _651  and  _652
REMARK  268  A    between atoms: _651  and  _654
REMARK  269  A    between atoms: _654  and  _655
REMARK  270  A    between atoms: _660  and  _661
REMARK                            x       y       z     vdW  Elec       q    Type
REMARK                         _______ _______ _______ _____ _____    ______ ____
ROOT
ATOM      1  C   LEU A   5      31.047  20.253  32.951  0.00  0.00    +0.241 C 
ATOM      2  N   GLY A   6      30.393  21.106  33.738  0.00  0.00    -0.295 N 
ATOM      3  H   GLY A   6      30.440  22.124  33.529  0.00  0.00    +0.150 HD
ATOM      4  O   LEU A   5      31.069  19.035  33.145  0.00  0.00    -0.273 OA
ENDROOT
BRANCH   1   5
ATOM      5  CA  LEU A   5      31.802  20.859  31.767  0.00  0.00    +0.149 C 
BRANCH   5   7
ATOM      6  C   GLY A   4      29.873  21.483  30.404  0.00  0.00    +0.243 C 
ATOM      7  N   LEU A   5      30.982  21.838  31.051  0.00  0.00    -0.297 N 
ATOM      8  H   LEU A   5      31.273  22.836  31.047  0.00  0.00    +0.150 HD
ATOM      9  O   GLY A   4      29.469  20.322  30.363  0.00  0.00    -0.273 OA
BRANCH   6  10
ATOM     10  CA  GLY A   4      29.122  22.584  29.682  0.00  0.00    +0.176 C 
BRANCH  10  13
ATOM     11  C   GLY A   3      28.299  23.916  31.586  0.00  0.00    +0.243 C 
ATOM     12  O   GLY A   3      28.009  22.938  32.275  0.00  0.00    -0.273 OA
ATOM     13  N   GLY A   4      28.926  23.843  30.412  0.00  0.00    -0.295 N 
ATOM     14  H   GLY A   4      29.294  24.720  29.993  0.00  0.00    +0.150 HD
BRANCH  11  15
ATOM     15  CA  GLY A   3      27.973  25.305  32.072  0.00  0.00    +0.176 C 
BRANCH  15  18
ATOM     16  C   ASN A   2      28.597  26.740  33.935  0.00  0.00    +0.241 C 
ATOM     17  O   ASN A   2      28.006  27.713  33.463  0.00  0.00    -0.273 OA
ATOM     18  N   GLY A   3      28.604  25.543  33.362  0.00  0.00    -0.295 N 
ATOM     19  H   GLY A   3      29.074  24.753  33.848  0.00  0.00    +0.150 HD
BRANCH  16  20
ATOM     20  CA  ASN A   2      29.393  26.861  35.229  0.00  0.00    +0.158 C 
BRANCH  20  23
ATOM     21  C   GLY A   1      28.551  25.392  37.012  0.00  0.00    +0.240 C 
ATOM     22  O   GLY A   1      27.608  26.130  37.284  0.00  0.00    -0.274 OA
ATOM     23  N   ASN A   2      29.409  25.635  36.024  0.00  0.00    -0.297 N 
ATOM     24  H   ASN A   2      30.128  24.915  35.807  0.00  0.00    +0.150 HD
BRANCH  21  25
ATOM     25  CA  GLY A   1      28.795  24.127  37.815  0.00  0.00    +0.169 C 
BRANCH  25  26
ATOM     26  N   GLY A   1      27.954  24.092  39.017  0.00  0.00    -0.236 NA
ATOM     27  H   GLY A   1      27.116  24.707  39.058  0.00  0.00    +0.142 HD
ENDBRANCH  25  26
ENDBRANCH  21  25
ENDBRANCH  20  23
BRANCH  20  28
ATOM     28  CB  ASN A   2      30.826  27.269  34.884  0.00  0.00    +0.114 C 
BRANCH  28  29
ATOM     29  CG  ASN A   2      31.463  28.100  35.966  0.00  0.00    +0.222 C 
ATOM     30  ND2 ASN A   2      32.440  27.526  36.652  0.00  0.00    -0.329 N 
ATOM     31 HD21 ASN A   2      32.910  28.045  37.421  0.00  0.00    +0.145 HD
ATOM     32 HD22 ASN A   2      32.737  26.556  36.421  0.00  0.00    +0.145 HD
ATOM     33  OD1 ASN A   2      31.069  29.246  36.195  0.00  0.00    -0.275 OA
ENDBRANCH  28  29
ENDBRANCH  20  28
ENDBRANCH  16  20
ENDBRANCH  15  18
ENDBRANCH  11  15
ENDBRANCH  10  13
ENDBRANCH   6  10
ENDBRANCH   5   7
BRANCH   5  34
ATOM     34  CB  LEU A   5      33.144  21.477  32.208  0.00  0.00    +0.029 C 
BRANCH  34  35
ATOM     35  CG  LEU A   5      34.111  20.630  33.051  0.00  0.00    +0.002 C 
ATOM     36  CD2 LEU A   5      33.883  20.880  34.541  0.00  0.00    +0.000 C 
ATOM     37  CD1 LEU A   5      35.567  20.915  32.689  0.00  0.00    +0.000 C 
ENDBRANCH  34  35
ENDBRANCH   5  34
ENDBRANCH   1   5
BRANCH   2  38
ATOM     38  CA  GLY A   6      29.611  20.652  34.887  0.00  0.00    +0.176 C 
BRANCH  38  39
ATOM     39  C   GLY A   6      28.394  19.838  34.469  0.00  0.00    +0.243 C 
ATOM     40  O   GLY A   6      28.023  18.868  35.133  0.00  0.00    -0.273 OA
ATOM     41  N   ARG A   7      27.762  20.238  33.372  0.00  0.00    -0.297 N 
ATOM     42  H   ARG A   7      28.109  21.066  32.847  0.00  0.00    +0.150 HD
BRANCH  41  43
ATOM     43  CA  ARG A   7      26.576  19.517  32.897  0.00  0.00    +0.149 C 
BRANCH  43  44
ATOM     44  C   ARG A   7      26.955  18.159  32.304  0.00  0.00    +0.241 C 
ATOM     45  O   ARG A   7      26.210  17.185  32.445  0.00  0.00    -0.273 OA
ATOM     46  N   LEU A   8      28.123  18.090  31.669  0.00  0.00    -0.297 N 
ATOM     47  H   LEU A   8      28.680  18.958  31.533  0.00  0.00    +0.150 HD
BRANCH  46  48
ATOM     48  CA  LEU A   8      28.640  16.820  31.158  0.00  0.00    +0.149 C 
BRANCH  48  49
ATOM     49  C   LEU A   8      28.813  15.804  32.283  0.00  0.00    +0.241 C 
ATOM     50  N   ALA A   9      29.404  16.239  33.399  0.00  0.00    -0.298 N 
ATOM     51  H   ALA A   9      29.766  17.213  33.435  0.00  0.00    +0.150 HD
ATOM     52  O   LEU A   8      28.423  14.650  32.137  0.00  0.00    -0.273 OA
BRANCH  50  53
ATOM     53  CA  ALA A   9      29.554  15.381  34.569  0.00  0.00    +0.137 C 
ATOM     54  CB  ALA A   9      30.259  16.136  35.708  0.00  0.00    +0.030 C 
BRANCH  53  55
ATOM     55  C   ALA A   9      28.197  14.837  35.036  0.00  0.00    +0.227 C 
ATOM     56  O   ALA A   9      28.087  13.662  35.374  0.00  0.00    -0.286 OA
ENDBRANCH  53  55
ENDBRANCH  50  53
ENDBRANCH  48  49
BRANCH  48  57
ATOM     57  CB  LEU A   8      29.960  17.004  30.401  0.00  0.00    +0.029 C 
BRANCH  57  58
ATOM     58  CG  LEU A   8      30.465  15.749  29.661  0.00  0.00    +0.002 C 
ATOM     59  CD2 LEU A   8      31.970  15.812  29.430  0.00  0.00    +0.000 C 
ATOM     60  CD1 LEU A   8      29.722  15.570  28.333  0.00  0.00    +0.000 C 
ENDBRANCH  57  58
ENDBRANCH  48  57
ENDBRANCH  46  48
ENDBRANCH  43  44
BRANCH  43  61
ATOM     61  CB  ARG A   7      25.759  20.365  31.914  0.00  0.00    +0.033 C 
BRANCH  61  62
ATOM     62  CG  ARG A   7      24.471  19.694  31.414  0.00  0.00    +0.045 C 
BRANCH  62  63
ATOM     63  CD  ARG A   7      23.528  19.311  32.564  0.00  0.00    +0.174 C 
BRANCH  63  64
ATOM     64  NE  ARG A   7      23.115  17.913  32.453  0.00  0.00    -0.265 N 
ATOM     65  CZ  ARG A   7      22.333  17.277  33.322  0.00  0.00    +0.342 C 
ATOM     66  NH2 ARG A   7      21.867  17.907  34.392  0.00  0.00    -0.292 N 
ATOM     67 HH21 ARG A   7      21.256  17.404  35.067  0.00  0.00    +0.255 HD
ATOM     68 HH22 ARG A   7      22.112  18.904  34.556  0.00  0.00    +0.255 HD
ATOM     69  NH1 ARG A   7      22.029  15.997  33.126  0.00  0.00    -0.292 N 
ATOM     70 HH11 ARG A   7      21.418  15.498  33.804  0.00  0.00    +0.255 HD
ATOM     71 HH12 ARG A   7      22.402  15.495  32.295  0.00  0.00    +0.255 HD
ATOM     72  HE  ARG A   7      23.459  17.374  31.632  0.00  0.00    +0.259 HD
ENDBRANCH  63  64
ENDBRANCH  62  63
ENDBRANCH  61  62
ENDBRANCH  43  61
ENDBRANCH  41  43
ENDBRANCH  38  39
ENDBRANCH   2  38
TORSDOF 28
REMARK  Name = ../refined-set-2016/2qrm/2qrm_pocket.pdb
REMARK  270 active torsions:
REMARK  status: ('A' for Active; 'I' for Inactive)
REMARK    1  A    between atoms: _1  and  _3
REMARK    2  A    between atoms: _3  and  _4
REMARK    3  A    between atoms: _3  and  _6
REMARK    4  A    between atoms: _6  and  _7
REMARK    5  A    between atoms: _12  and  _13
REMARK    6  A    between atoms: _15  and  _17
REMARK    7  A    between atoms: _17  and  _18
REMARK    8  A    between atoms: _17  and  _20
REMARK    9  A    between atoms: _20  and  _21
REMARK   10  A    between atoms: _24  and  _26
REMARK   11  A    between atoms: _26  and  _27
REMARK   12  A    between atoms: _26  and  _29
REMARK   13  A    between atoms: _29  and  _30
REMARK   14  A    between atoms: _30  and  _31
REMARK   15  A    between atoms: _34  and  _36
REMARK   16  A    between atoms: _36  and  _37
REMARK   17  A    between atoms: _39  and  _41
REMARK   18  A    between atoms: _41  and  _42
REMARK   19  A    between atoms: _41  and  _44
REMARK   20  A    between atoms: _44  and  _45
REMARK   21  A    between atoms: _50  and  _52
REMARK   22  A    between atoms: _52  and  _53
REMARK   23  A    between atoms: _55  and  _57
REMARK   24  A    between atoms: _57  and  _58
REMARK   25  A    between atoms: _60  and  _62
REMARK   26  A    between atoms: _62  and  _63
REMARK   27  A    between atoms: _62  and  _65
REMARK   28  A    between atoms: _65  and  _66
REMARK   29  A    between atoms: _69  and  _71
REMARK   30  A    between atoms: _71  and  _72
REMARK   31  A    between atoms: _74  and  _76
REMARK   32  A    between atoms: _76  and  _77
REMARK   33  A    between atoms: _76  and  _79
REMARK   34  A    between atoms: _79  and  _80
REMARK   35  A    between atoms: _80  and  _81
REMARK   36  A    between atoms: _81  and  _82
REMARK   37  A    between atoms: _91  and  _93
REMARK   38  A    between atoms: _93  and  _94
REMARK   39  A    between atoms: _93  and  _96
REMARK   40  A    between atoms: _96  and  _97
REMARK   41  A    between atoms: _100  and  _102
REMARK   42  A    between atoms: _102  and  _103
REMARK   43  A    between atoms: _106  and  _108
REMARK   44  A    between atoms: _108  and  _109
REMARK   45  A    between atoms: _108  and  _111
REMARK   46  A    between atoms: _111  and  _112
REMARK   47  A    between atoms: _118  and  _120
REMARK   48  A    between atoms: _120  and  _121
REMARK   49  A    between atoms: _120  and  _123
REMARK   50  A    between atoms: _123  and  _124
REMARK   51  A    between atoms: _129  and  _130
REMARK   52  A    between atoms: _132  and  _134
REMARK   53  A    between atoms: _134  and  _135
REMARK   54  A    between atoms: _134  and  _137
REMARK   55  A    between atoms: _137  and  _138
REMARK   56  A    between atoms: _141  and  _143
REMARK   57  A    between atoms: _143  and  _144
REMARK   58  A    between atoms: _143  and  _146
REMARK   59  A    between atoms: _146  and  _147
REMARK   60  A    between atoms: _152  and  _153
REMARK   61  A    between atoms: _156  and  _157
REMARK   62  A    between atoms: _162  and  _164
REMARK   63  A    between atoms: _164  and  _165
REMARK   64  A    between atoms: _164  and  _167
REMARK   65  A    between atoms: _167  and  _168
REMARK   66  A    between atoms: _173  and  _175
REMARK   67  A    between atoms: _175  and  _176
REMARK   68  A    between atoms: _175  and  _178
REMARK   69  A    between atoms: _178  and  _179
REMARK   70  A    between atoms: _182  and  _184
REMARK   71  A    between atoms: _184  and  _185
REMARK   72  A    between atoms: _184  and  _187
REMARK   73  A    between atoms: _187  and  _188
REMARK   74  A    between atoms: _193  and  _195
REMARK   75  A    between atoms: _195  and  _196
REMARK   76  A    between atoms: _195  and  _198
REMARK   77  A    between atoms: _198  and  _199
REMARK   78  A    between atoms: _205  and  _207
REMARK   79  A    between atoms: _207  and  _208
REMARK   80  A    between atoms: _207  and  _210
REMARK   81  A    between atoms: _210  and  _211
REMARK   82  A    between atoms: _217  and  _219
REMARK   83  A    between atoms: _219  and  _220
REMARK   84  A    between atoms: _219  and  _222
REMARK   85  A    between atoms: _222  and  _223
REMARK   86  A    between atoms: _223  and  _224
REMARK   87  A    between atoms: _227  and  _229
REMARK   88  A    between atoms: _229  and  _230
REMARK   89  A    between atoms: _229  and  _232
REMARK   90  A    between atoms: _232  and  _233
REMARK   91  A    between atoms: _233  and  _234
REMARK   92  A    between atoms: _234  and  _235
REMARK   93  A    between atoms: _244  and  _246
REMARK   94  A    between atoms: _246  and  _247
REMARK   95  A    between atoms: _246  and  _249
REMARK   96  A    between atoms: _249  and  _250
REMARK   97  A    between atoms: _250  and  _251
REMARK   98  A    between atoms: _254  and  _256
REMARK   99  A    between atoms: _256  and  _257
REMARK  100  A    between atoms: _256  and  _259
REMARK  101  A    between atoms: _259  and  _260
REMARK  102  A    between atoms: _265  and  _267
REMARK  103  A    between atoms: _267  and  _268
REMARK  104  A    between atoms: _267  and  _270
REMARK  105  A    between atoms: _270  and  _271
REMARK  106  A    between atoms: _274  and  _276
REMARK  107  A    between atoms: _276  and  _277
REMARK  108  A    between atoms: _276  and  _279
REMARK  109  A    between atoms: _279  and  _280
REMARK  110  A    between atoms: _283  and  _285
REMARK  111  A    between atoms: _285  and  _286
REMARK  112  A    between atoms: _285  and  _288
REMARK  113  A    between atoms: _288  and  _289
REMARK  114  A    between atoms: _294  and  _296
REMARK  115  A    between atoms: _296  and  _297
REMARK  116  A    between atoms: _296  and  _299
REMARK  117  A    between atoms: _299  and  _300
REMARK  118  A    between atoms: _303  and  _305
REMARK  119  A    between atoms: _305  and  _306
REMARK  120  A    between atoms: _305  and  _308
REMARK  121  A    between atoms: _308  and  _309
REMARK  122  A    between atoms: _314  and  _316
REMARK  123  A    between atoms: _316  and  _317
REMARK  124  A    between atoms: _316  and  _319
REMARK  125  A    between atoms: _319  and  _320
REMARK  126  A    between atoms: _325  and  _327
REMARK  127  A    between atoms: _327  and  _328
REMARK  128  A    between atoms: _327  and  _330
REMARK  129  A    between atoms: _330  and  _331
REMARK  130  A    between atoms: _334  and  _336
REMARK  131  A    between atoms: _336  and  _337
REMARK  132  A    between atoms: _336  and  _339
REMARK  133  A    between atoms: _342  and  _344
REMARK  134  A    between atoms: _344  and  _345
REMARK  135  A    between atoms: _344  and  _347
REMARK  136  A    between atoms: _347  and  _348
REMARK  137  A    between atoms: _351  and  _353
REMARK  138  A    between atoms: _353  and  _354
REMARK  139  A    between atoms: _353  and  _356
REMARK  140  A    between atoms: _356  and  _357
REMARK  141  A    between atoms: _357  and  _358
REMARK  142  A    between atoms: _361  and  _363
REMARK  143  A    between atoms: _363  and  _364
REMARK  144  A    between atoms: _367  and  _369
REMARK  145  A    between atoms: _369  and  _370
REMARK  146  A    between atoms: _369  and  _372
REMARK  147  A    between atoms: _372  and  _373
REMARK  148  A    between atoms: _376  and  _378
REMARK  149  A    between atoms: _378  and  _379
REMARK  150  A    between atoms: _378  and  _381
REMARK  151  A    between atoms: _381  and  _382
REMARK  152  A    between atoms: _382  and  _383
REMARK  153  A    between atoms: _386  and  _388
REMARK  154  A    between atoms: _388  and  _389
REMARK  155  A    between atoms: _388  and  _391
REMARK  156  A    between atoms: _391  and  _392
REMARK  157  A    between atoms: _397  and  _399
REMARK  158  A    between atoms: _399  and  _400
REMARK  159  A    between atoms: _402  and  _404
REMARK  160  A    between atoms: _404  and  _405
REMARK  161  A    between atoms: _404  and  _407
REMARK  162  A    between atoms: _410  and  _412
REMARK  163  A    between atoms: _412  and  _413
REMARK  164  A    between atoms: _416  and  _418
REMARK  165  A    between atoms: _418  and  _419
REMARK  166  A    between atoms: _418  and  _421
REMARK  167  A    between atoms: _421  and  _422
REMARK  168  A    between atoms: _427  and  _429
REMARK  169  A    between atoms: _429  and  _430
REMARK  170  A    between atoms: _429  and  _432
REMARK  171  A    between atoms: _432  and  _433
REMARK  172  A    between atoms: _433  and  _434
REMARK  173  A    between atoms: _434  and  _435
REMARK  174  A    between atoms: _435  and  _436
REMARK  175  A    between atoms: _440  and  _442
REMARK  176  A    between atoms: _442  and  _443
REMARK  177  A    between atoms: _442  and  _445
REMARK  178  A    between atoms: _445  and  _446
REMARK  179  A    between atoms: _449  and  _451
REMARK  180  A    between atoms: _451  and  _452
REMARK  181  A    between atoms: _451  and  _454
REMARK  182  A    between atoms: _454  and  _455
REMARK  183  A    between atoms: _460  and  _462
REMARK  184  A    between atoms: _462  and  _463
REMARK  185  A    between atoms: _465  and  _467
REMARK  186  A    between atoms: _467  and  _468
REMARK  187  A    between atoms: _467  and  _470
REMARK  188  A    between atoms: _470  and  _471
REMARK  189  A    between atoms: _471  and  _472
REMARK  190  A    between atoms: _472  and  _473
REMARK  191  A    between atoms: _473  and  _474
REMARK  192  A    between atoms: _478  and  _480
REMARK  193  A    between atoms: _480  and  _481
REMARK  194  A    between atoms: _480  and  _483
REMARK  195  A    between atoms: _483  and  _484
REMARK  196  A    between atoms: _484  and  _485
REMARK  197  A    between atoms: _485  and  _486
REMARK  198  A    between atoms: _495  and  _497
REMARK  199  A    between atoms: _497  and  _498
REMARK  200  A    between atoms: _497  and  _500
REMARK  201  A    between atoms: _500  and  _501
REMARK  202  A    between atoms: _506  and  _507
REMARK  203  A    between atoms: _509  and  _511
REMARK  204  A    between atoms: _511  and  _512
REMARK  205  A    between atoms: _511  and  _514
REMARK  206  A    between atoms: _514  and  _515
REMARK  207  A    between atoms: _515  and  _516
REMARK  208  A    between atoms: _516  and  _517
REMARK  209  A    between atoms: _517  and  _518
REMARK  210  A    between atoms: _522  and  _524
REMARK  211  A    between atoms: _524  and  _525
REMARK  212  A    between atoms: _524  and  _527
REMARK  213  A    between atoms: _527  and  _528
REMARK  214  A    between atoms: _530  and  _532
REMARK  215  A    between atoms: _532  and  _533
REMARK  216  A    between atoms: _532  and  _535
REMARK  217  A    between atoms: _535  and  _536
REMARK  218  A    between atoms: _539  and  _541
REMARK  219  A    between atoms: _541  and  _542
REMARK  220  A    between atoms: _541  and  _544
REMARK  221  A    between atoms: _544  and  _545
REMARK  222  A    between atoms: _545  and  _546
REMARK  223  A    between atoms: _549  and  _551
REMARK  224  A    between atoms: _551  and  _552
REMARK  225  A    between atoms: _555  and  _557
REMARK  226  A    between atoms: _557  and  _558
REMARK  227  A    between atoms: _557  and  _560
REMARK  228  A    between atoms: _560  and  _561
REMARK  229  A    between atoms: _563  and  _565
REMARK  230  A    between atoms: _565  and  _566
REMARK  231  A    between atoms: _568  and  _570
REMARK  232  A    between atoms: _570  and  _571
REMARK  233  A    between atoms: _570  and  _573
REMARK  234  A    between atoms: _573  and  _574
REMARK  235  A    between atoms: _577  and  _579
REMARK  236  A    between atoms: _579  and  _580
REMARK  237  A    between atoms: _582  and  _584
REMARK  238  A    between atoms: _584  and  _585
REMARK  239  A    between atoms: _584  and  _587
REMARK  240  A    between atoms: _587  and  _588
REMARK  241  A    between atoms: _593  and  _595
REMARK  242  A    between atoms: _595  and  _596
REMARK  243  A    between atoms: _595  and  _598
REMARK  244  A    between atoms: _598  and  _599
REMARK  245  A    between atoms: _599  and  _600
REMARK  246  A    between atoms: _607  and  _608
REMARK  247  A    between atoms: _608  and  _624
REMARK  248  A    between atoms: _609  and  _611
REMARK  249  A    between atoms: _611  and  _612
REMARK  250  A    between atoms: _612  and  _613
REMARK  251  A    between atoms: _617  and  _619
REMARK  252  A    between atoms: _619  and  _620
REMARK  253  A    between atoms: _619  and  _627
REMARK  254  A    between atoms: _620  and  _621
REMARK  255  A    between atoms: _621  and  _622
REMARK  256  A    between atoms: _622  and  _623
REMARK  257  A    between atoms: _623  and  _624
REMARK  258  A    between atoms: _629  and  _631
REMARK  259  A    between atoms: _631  and  _632
REMARK  260  A    between atoms: _631  and  _634
REMARK  261  A    between atoms: _634  and  _635
REMARK  262  A    between atoms: _638  and  _640
REMARK  263  A    between atoms: _640  and  _641
REMARK  264  A    between atoms: _643  and  _645
REMARK  265  A    between atoms: _645  and  _646
REMARK  266  A    between atoms: _649  and  _651
REMARK  267  A    between atoms: _651  and  _652
REMARK  268  A    between atoms: _651  and  _654
REMARK  269  A    between atoms: _654  and  _655
REMARK  270  A    between atoms: _660  and  _661
REMARK                            x       y       z     vdW  Elec       q    Type
REMARK                         _______ _______ _______ _____ _____    ______ ____
ROOT
ATOM      1  CB  PHE A   1      29.169  11.514  32.860  0.00  0.00    +0.051 C 
ENDROOT
BRANCH   1   2
ATOM      2  CG  PHE A   1      29.859  11.725  31.536  0.00  0.00    -0.020 A 
ATOM      3  CD2 PHE A   1      31.244  11.852  31.480  0.00  0.00    -0.004 A 
ATOM      4  CE2 PHE A   1      31.895  12.052  30.261  0.00  0.00    -0.000 A 
ATOM      5  CZ  PHE A   1      31.163  12.141  29.092  0.00  0.00    -0.000 A 
ATOM      6  CE1 PHE A   1      29.773  12.022  29.128  0.00  0.00    -0.000 A 
ATOM      7  CD1 PHE A   1      29.129  11.824  30.349  0.00  0.00    -0.004 A 
ENDBRANCH   1   2
BRANCH   1   8
ATOM      8  CA  PHE A   1      27.693  11.123  32.737  0.00  0.00    +0.137 C 
BRANCH   8   9
ATOM      9  N   PHE A   1      26.858  12.307  32.546  0.00  0.00    -0.239 NA
ATOM     10  H   PHE A   1      27.304  13.246  32.580  0.00  0.00    +0.142 HD
ENDBRANCH   8   9
BRANCH   8  11
ATOM     11  C   PHE A   1      27.262  10.275  33.935  0.00  0.00    +0.224 C 
ATOM     12  O   PHE A   1      27.207   9.050  33.839  0.00  0.00    -0.287 OA
ENDBRANCH   8  11
ENDBRANCH   1   8
TORSDOF 4
REMARK  Name = ../refined-set-2016/2qrm/2qrm_pocket.pdb
REMARK  270 active torsions:
REMARK  status: ('A' for Active; 'I' for Inactive)
REMARK    1  A    between atoms: _1  and  _3
REMARK    2  A    between atoms: _3  and  _4
REMARK    3  A    between atoms: _3  and  _6
REMARK    4  A    between atoms: _6  and  _7
REMARK    5  A    between atoms: _12  and  _13
REMARK    6  A    between atoms: _15  and  _17
REMARK    7  A    between atoms: _17  and  _18
REMARK    8  A    between atoms: _17  and  _20
REMARK    9  A    between atoms: _20  and  _21
REMARK   10  A    between atoms: _24  and  _26
REMARK   11  A    between atoms: _26  and  _27
REMARK   12  A    between atoms: _26  and  _29
REMARK   13  A    between atoms: _29  and  _30
REMARK   14  A    between atoms: _30  and  _31
REMARK   15  A    between atoms: _34  and  _36
REMARK   16  A    between atoms: _36  and  _37
REMARK   17  A    between atoms: _39  and  _41
REMARK   18  A    between atoms: _41  and  _42
REMARK   19  A    between atoms: _41  and  _44
REMARK   20  A    between atoms: _44  and  _45
REMARK   21  A    between atoms: _50  and  _52
REMARK   22  A    between atoms: _52  and  _53
REMARK   23  A    between atoms: _55  and  _57
REMARK   24  A    between atoms: _57  and  _58
REMARK   25  A    between atoms: _60  and  _62
REMARK   26  A    between atoms: _62  and  _63
REMARK   27  A    between atoms: _62  and  _65
REMARK   28  A    between atoms: _65  and  _66
REMARK   29  A    between atoms: _69  and  _71
REMARK   30  A    between atoms: _71  and  _72
REMARK   31  A    between atoms: _74  and  _76
REMARK   32  A    between atoms: _76  and  _77
REMARK   33  A    between atoms: _76  and  _79
REMARK   34  A    between atoms: _79  and  _80
REMARK   35  A    between atoms: _80  and  _81
REMARK   36  A    between atoms: _81  and  _82
REMARK   37  A    between atoms: _91  and  _93
REMARK   38  A    between atoms: _93  and  _94
REMARK   39  A    between atoms: _93  and  _96
REMARK   40  A    between atoms: _96  and  _97
REMARK   41  A    between atoms: _100  and  _102
REMARK   42  A    between atoms: _102  and  _103
REMARK   43  A    between atoms: _106  and  _108
REMARK   44  A    between atoms: _108  and  _109
REMARK   45  A    between atoms: _108  and  _111
REMARK   46  A    between atoms: _111  and  _112
REMARK   47  A    between atoms: _118  and  _120
REMARK   48  A    between atoms: _120  and  _121
REMARK   49  A    between atoms: _120  and  _123
REMARK   50  A    between atoms: _123  and  _124
REMARK   51  A    between atoms: _129  and  _130
REMARK   52  A    between atoms: _132  and  _134
REMARK   53  A    between atoms: _134  and  _135
REMARK   54  A    between atoms: _134  and  _137
REMARK   55  A    between atoms: _137  and  _138
REMARK   56  A    between atoms: _141  and  _143
REMARK   57  A    between atoms: _143  and  _144
REMARK   58  A    between atoms: _143  and  _146
REMARK   59  A    between atoms: _146  and  _147
REMARK   60  A    between atoms: _152  and  _153
REMARK   61  A    between atoms: _156  and  _157
REMARK   62  A    between atoms: _162  and  _164
REMARK   63  A    between atoms: _164  and  _165
REMARK   64  A    between atoms: _164  and  _167
REMARK   65  A    between atoms: _167  and  _168
REMARK   66  A    between atoms: _173  and  _175
REMARK   67  A    between atoms: _175  and  _176
REMARK   68  A    between atoms: _175  and  _178
REMARK   69  A    between atoms: _178  and  _179
REMARK   70  A    between atoms: _182  and  _184
REMARK   71  A    between atoms: _184  and  _185
REMARK   72  A    between atoms: _184  and  _187
REMARK   73  A    between atoms: _187  and  _188
REMARK   74  A    between atoms: _193  and  _195
REMARK   75  A    between atoms: _195  and  _196
REMARK   76  A    between atoms: _195  and  _198
REMARK   77  A    between atoms: _198  and  _199
REMARK   78  A    between atoms: _205  and  _207
REMARK   79  A    between atoms: _207  and  _208
REMARK   80  A    between atoms: _207  and  _210
REMARK   81  A    between atoms: _210  and  _211
REMARK   82  A    between atoms: _217  and  _219
REMARK   83  A    between atoms: _219  and  _220
REMARK   84  A    between atoms: _219  and  _222
REMARK   85  A    between atoms: _222  and  _223
REMARK   86  A    between atoms: _223  and  _224
REMARK   87  A    between atoms: _227  and  _229
REMARK   88  A    between atoms: _229  and  _230
REMARK   89  A    between atoms: _229  and  _232
REMARK   90  A    between atoms: _232  and  _233
REMARK   91  A    between atoms: _233  and  _234
REMARK   92  A    between atoms: _234  and  _235
REMARK   93  A    between atoms: _244  and  _246
REMARK   94  A    between atoms: _246  and  _247
REMARK   95  A    between atoms: _246  and  _249
REMARK   96  A    between atoms: _249  and  _250
REMARK   97  A    between atoms: _250  and  _251
REMARK   98  A    between atoms: _254  and  _256
REMARK   99  A    between atoms: _256  and  _257
REMARK  100  A    between atoms: _256  and  _259
REMARK  101  A    between atoms: _259  and  _260
REMARK  102  A    between atoms: _265  and  _267
REMARK  103  A    between atoms: _267  and  _268
REMARK  104  A    between atoms: _267  and  _270
REMARK  105  A    between atoms: _270  and  _271
REMARK  106  A    between atoms: _274  and  _276
REMARK  107  A    between atoms: _276  and  _277
REMARK  108  A    between atoms: _276  and  _279
REMARK  109  A    between atoms: _279  and  _280
REMARK  110  A    between atoms: _283  and  _285
REMARK  111  A    between atoms: _285  and  _286
REMARK  112  A    between atoms: _285  and  _288
REMARK  113  A    between atoms: _288  and  _289
REMARK  114  A    between atoms: _294  and  _296
REMARK  115  A    between atoms: _296  and  _297
REMARK  116  A    between atoms: _296  and  _299
REMARK  117  A    between atoms: _299  and  _300
REMARK  118  A    between atoms: _303  and  _305
REMARK  119  A    between atoms: _305  and  _306
REMARK  120  A    between atoms: _305  and  _308
REMARK  121  A    between atoms: _308  and  _309
REMARK  122  A    between atoms: _314  and  _316
REMARK  123  A    between atoms: _316  and  _317
REMARK  124  A    between atoms: _316  and  _319
REMARK  125  A    between atoms: _319  and  _320
REMARK  126  A    between atoms: _325  and  _327
REMARK  127  A    between atoms: _327  and  _328
REMARK  128  A    between atoms: _327  and  _330
REMARK  129  A    between atoms: _330  and  _331
REMARK  130  A    between atoms: _334  and  _336
REMARK  131  A    between atoms: _336  and  _337
REMARK  132  A    between atoms: _336  and  _339
REMARK  133  A    between atoms: _342  and  _344
REMARK  134  A    between atoms: _344  and  _345
REMARK  135  A    between atoms: _344  and  _347
REMARK  136  A    between atoms: _347  and  _348
REMARK  137  A    between atoms: _351  and  _353
REMARK  138  A    between atoms: _353  and  _354
REMARK  139  A    between atoms: _353  and  _356
REMARK  140  A    between atoms: _356  and  _357
REMARK  141  A    between atoms: _357  and  _358
REMARK  142  A    between atoms: _361  and  _363
REMARK  143  A    between atoms: _363  and  _364
REMARK  144  A    between atoms: _367  and  _369
REMARK  145  A    between atoms: _369  and  _370
REMARK  146  A    between atoms: _369  and  _372
REMARK  147  A    between atoms: _372  and  _373
REMARK  148  A    between atoms: _376  and  _378
REMARK  149  A    between atoms: _378  and  _379
REMARK  150  A    between atoms: _378  and  _381
REMARK  151  A    between atoms: _381  and  _382
REMARK  152  A    between atoms: _382  and  _383
REMARK  153  A    between atoms: _386  and  _388
REMARK  154  A    between atoms: _388  and  _389
REMARK  155  A    between atoms: _388  and  _391
REMARK  156  A    between atoms: _391  and  _392
REMARK  157  A    between atoms: _397  and  _399
REMARK  158  A    between atoms: _399  and  _400
REMARK  159  A    between atoms: _402  and  _404
REMARK  160  A    between atoms: _404  and  _405
REMARK  161  A    between atoms: _404  and  _407
REMARK  162  A    between atoms: _410  and  _412
REMARK  163  A    between atoms: _412  and  _413
REMARK  164  A    between atoms: _416  and  _418
REMARK  165  A    between atoms: _418  and  _419
REMARK  166  A    between atoms: _418  and  _421
REMARK  167  A    between atoms: _421  and  _422
REMARK  168  A    between atoms: _427  and  _429
REMARK  169  A    between atoms: _429  and  _430
REMARK  170  A    between atoms: _429  and  _432
REMARK  171  A    between atoms: _432  and  _433
REMARK  172  A    between atoms: _433  and  _434
REMARK  173  A    between atoms: _434  and  _435
REMARK  174  A    between atoms: _435  and  _436
REMARK  175  A    between atoms: _440  and  _442
REMARK  176  A    between atoms: _442  and  _443
REMARK  177  A    between atoms: _442  and  _445
REMARK  178  A    between atoms: _445  and  _446
REMARK  179  A    between atoms: _449  and  _451
REMARK  180  A    between atoms: _451  and  _452
REMARK  181  A    between atoms: _451  and  _454
REMARK  182  A    between atoms: _454  and  _455
REMARK  183  A    between atoms: _460  and  _462
REMARK  184  A    between atoms: _462  and  _463
REMARK  185  A    between atoms: _465  and  _467
REMARK  186  A    between atoms: _467  and  _468
REMARK  187  A    between atoms: _467  and  _470
REMARK  188  A    between atoms: _470  and  _471
REMARK  189  A    between atoms: _471  and  _472
REMARK  190  A    between atoms: _472  and  _473
REMARK  191  A    between atoms: _473  and  _474
REMARK  192  A    between atoms: _478  and  _480
REMARK  193  A    between atoms: _480  and  _481
REMARK  194  A    between atoms: _480  and  _483
REMARK  195  A    between atoms: _483  and  _484
REMARK  196  A    between atoms: _484  and  _485
REMARK  197  A    between atoms: _485  and  _486
REMARK  198  A    between atoms: _495  and  _497
REMARK  199  A    between atoms: _497  and  _498
REMARK  200  A    between atoms: _497  and  _500
REMARK  201  A    between atoms: _500  and  _501
REMARK  202  A    between atoms: _506  and  _507
REMARK  203  A    between atoms: _509  and  _511
REMARK  204  A    between atoms: _511  and  _512
REMARK  205  A    between atoms: _511  and  _514
REMARK  206  A    between atoms: _514  and  _515
REMARK  207  A    between atoms: _515  and  _516
REMARK  208  A    between atoms: _516  and  _517
REMARK  209  A    between atoms: _517  and  _518
REMARK  210  A    between atoms: _522  and  _524
REMARK  211  A    between atoms: _524  and  _525
REMARK  212  A    between atoms: _524  and  _527
REMARK  213  A    between atoms: _527  and  _528
REMARK  214  A    between atoms: _530  and  _532
REMARK  215  A    between atoms: _532  and  _533
REMARK  216  A    between atoms: _532  and  _535
REMARK  217  A    between atoms: _535  and  _536
REMARK  218  A    between atoms: _539  and  _541
REMARK  219  A    between atoms: _541  and  _542
REMARK  220  A    between atoms: _541  and  _544
REMARK  221  A    between atoms: _544  and  _545
REMARK  222  A    between atoms: _545  and  _546
REMARK  223  A    between atoms: _549  and  _551
REMARK  224  A    between atoms: _551  and  _552
REMARK  225  A    between atoms: _555  and  _557
REMARK  226  A    between atoms: _557  and  _558
REMARK  227  A    between atoms: _557  and  _560
REMARK  228  A    between atoms: _560  and  _561
REMARK  229  A    between atoms: _563  and  _565
REMARK  230  A    between atoms: _565  and  _566
REMARK  231  A    between atoms: _568  and  _570
REMARK  232  A    between atoms: _570  and  _571
REMARK  233  A    between atoms: _570  and  _573
REMARK  234  A    between atoms: _573  and  _574
REMARK  235  A    between atoms: _577  and  _579
REMARK  236  A    between atoms: _579  and  _580
REMARK  237  A    between atoms: _582  and  _584
REMARK  238  A    between atoms: _584  and  _585
REMARK  239  A    between atoms: _584  and  _587
REMARK  240  A    between atoms: _587  and  _588
REMARK  241  A    between atoms: _593  and  _595
REMARK  242  A    between atoms: _595  and  _596
REMARK  243  A    between atoms: _595  and  _598
REMARK  244  A    between atoms: _598  and  _599
REMARK  245  A    between atoms: _599  and  _600
REMARK  246  A    between atoms: _607  and  _608
REMARK  247  A    between atoms: _608  and  _624
REMARK  248  A    between atoms: _609  and  _611
REMARK  249  A    between atoms: _611  and  _612
REMARK  250  A    between atoms: _612  and  _613
REMARK  251  A    between atoms: _617  and  _619
REMARK  252  A    between atoms: _619  and  _620
REMARK  253  A    between atoms: _619  and  _627
REMARK  254  A    between atoms: _620  and  _621
REMARK  255  A    between atoms: _621  and  _622
REMARK  256  A    between atoms: _622  and  _623
REMARK  257  A    between atoms: _623  and  _624
REMARK  258  A    between atoms: _629  and  _631
REMARK  259  A    between atoms: _631  and  _632
REMARK  260  A    between atoms: _631  and  _634
REMARK  261  A    between atoms: _634  and  _635
REMARK  262  A    between atoms: _638  and  _640
REMARK  263  A    between atoms: _640  and  _641
REMARK  264  A    between atoms: _643  and  _645
REMARK  265  A    between atoms: _645  and  _646
REMARK  266  A    between atoms: _649  and  _651
REMARK  267  A    between atoms: _651  and  _652
REMARK  268  A    between atoms: _651  and  _654
REMARK  269  A    between atoms: _654  and  _655
REMARK  270  A    between atoms: _660  and  _661
REMARK                            x       y       z     vdW  Elec       q    Type
REMARK                         _______ _______ _______ _____ _____    ______ ____
ROOT
ATOM      1  CG  TYR A   1      30.897  24.701  45.271  0.00  0.00    -0.020 A 
ATOM      2  CD2 TYR A   1      32.195  25.114  45.590  0.00  0.00    -0.001 A 
ATOM      3  CE2 TYR A   1      33.280  24.740  44.799  0.00  0.00    +0.036 A 
ATOM      4  CZ  TYR A   1      33.062  23.962  43.674  0.00  0.00    +0.134 A 
ATOM      5  CE1 TYR A   1      31.779  23.548  43.338  0.00  0.00    +0.036 A 
ATOM      6  CD1 TYR A   1      30.712  23.921  44.133  0.00  0.00    -0.001 A 
ENDROOT
BRANCH   4   7
ATOM      7  OH  TYR A   1      34.113  23.591  42.871  0.00  0.00    -0.506 OA
ATOM      8  HH  TYR A   1      34.170  22.603  42.840  0.00  0.00    +0.292 HD
ENDBRANCH   4   7
BRANCH   1   9
ATOM      9  CB  TYR A   1      29.715  25.113  46.122  0.00  0.00    +0.051 C 
BRANCH   9  10
ATOM     10  CA  TYR A   1      29.628  24.420  47.478  0.00  0.00    +0.137 C 
BRANCH  10  11
ATOM     11  N   TYR A   1      29.537  22.975  47.328  0.00  0.00    -0.239 NA
ATOM     12  H   TYR A   1      29.370  22.562  46.388  0.00  0.00    +0.142 HD
ENDBRANCH  10  11
BRANCH  10  13
ATOM     13  C   TYR A   1      28.390  24.908  48.211  0.00  0.00    +0.224 C 
ATOM     14  O   TYR A   1      27.274  24.450  47.939  0.00  0.00    -0.287 OA
ENDBRANCH  10  13
ENDBRANCH   9  10
ENDBRANCH   1   9
TORSDOF 5
REMARK  Name = ../refined-set-2016/2qrm/2qrm_pocket.pdb
REMARK  270 active torsions:
REMARK  status: ('A' for Active; 'I' for Inactive)
REMARK    1  A    between atoms: _1  and  _3
REMARK    2  A    between atoms: _3  and  _4
REMARK    3  A    between atoms: _3  and  _6
REMARK    4  A    between atoms: _6  and  _7
REMARK    5  A    between atoms: _12  and  _13
REMARK    6  A    between atoms: _15  and  _17
REMARK    7  A    between atoms: _17  and  _18
REMARK    8  A    between atoms: _17  and  _20
REMARK    9  A    between atoms: _20  and  _21
REMARK   10  A    between atoms: _24  and  _26
REMARK   11  A    between atoms: _26  and  _27
REMARK   12  A    between atoms: _26  and  _29
REMARK   13  A    between atoms: _29  and  _30
REMARK   14  A    between atoms: _30  and  _31
REMARK   15  A    between atoms: _34  and  _36
REMARK   16  A    between atoms: _36  and  _37
REMARK   17  A    between atoms: _39  and  _41
REMARK   18  A    between atoms: _41  and  _42
REMARK   19  A    between atoms: _41  and  _44
REMARK   20  A    between atoms: _44  and  _45
REMARK   21  A    between atoms: _50  and  _52
REMARK   22  A    between atoms: _52  and  _53
REMARK   23  A    between atoms: _55  and  _57
REMARK   24  A    between atoms: _57  and  _58
REMARK   25  A    between atoms: _60  and  _62
REMARK   26  A    between atoms: _62  and  _63
REMARK   27  A    between atoms: _62  and  _65
REMARK   28  A    between atoms: _65  and  _66
REMARK   29  A    between atoms: _69  and  _71
REMARK   30  A    between atoms: _71  and  _72
REMARK   31  A    between atoms: _74  and  _76
REMARK   32  A    between atoms: _76  and  _77
REMARK   33  A    between atoms: _76  and  _79
REMARK   34  A    between atoms: _79  and  _80
REMARK   35  A    between atoms: _80  and  _81
REMARK   36  A    between atoms: _81  and  _82
REMARK   37  A    between atoms: _91  and  _93
REMARK   38  A    between atoms: _93  and  _94
REMARK   39  A    between atoms: _93  and  _96
REMARK   40  A    between atoms: _96  and  _97
REMARK   41  A    between atoms: _100  and  _102
REMARK   42  A    between atoms: _102  and  _103
REMARK   43  A    between atoms: _106  and  _108
REMARK   44  A    between atoms: _108  and  _109
REMARK   45  A    between atoms: _108  and  _111
REMARK   46  A    between atoms: _111  and  _112
REMARK   47  A    between atoms: _118  and  _120
REMARK   48  A    between atoms: _120  and  _121
REMARK   49  A    between atoms: _120  and  _123
REMARK   50  A    between atoms: _123  and  _124
REMARK   51  A    between atoms: _129  and  _130
REMARK   52  A    between atoms: _132  and  _134
REMARK   53  A    between atoms: _134  and  _135
REMARK   54  A    between atoms: _134  and  _137
REMARK   55  A    between atoms: _137  and  _138
REMARK   56  A    between atoms: _141  and  _143
REMARK   57  A    between atoms: _143  and  _144
REMARK   58  A    between atoms: _143  and  _146
REMARK   59  A    between atoms: _146  and  _147
REMARK   60  A    between atoms: _152  and  _153
REMARK   61  A    between atoms: _156  and  _157
REMARK   62  A    between atoms: _162  and  _164
REMARK   63  A    between atoms: _164  and  _165
REMARK   64  A    between atoms: _164  and  _167
REMARK   65  A    between atoms: _167  and  _168
REMARK   66  A    between atoms: _173  and  _175
REMARK   67  A    between atoms: _175  and  _176
REMARK   68  A    between atoms: _175  and  _178
REMARK   69  A    between atoms: _178  and  _179
REMARK   70  A    between atoms: _182  and  _184
REMARK   71  A    between atoms: _184  and  _185
REMARK   72  A    between atoms: _184  and  _187
REMARK   73  A    between atoms: _187  and  _188
REMARK   74  A    between atoms: _193  and  _195
REMARK   75  A    between atoms: _195  and  _196
REMARK   76  A    between atoms: _195  and  _198
REMARK   77  A    between atoms: _198  and  _199
REMARK   78  A    between atoms: _205  and  _207
REMARK   79  A    between atoms: _207  and  _208
REMARK   80  A    between atoms: _207  and  _210
REMARK   81  A    between atoms: _210  and  _211
REMARK   82  A    between atoms: _217  and  _219
REMARK   83  A    between atoms: _219  and  _220
REMARK   84  A    between atoms: _219  and  _222
REMARK   85  A    between atoms: _222  and  _223
REMARK   86  A    between atoms: _223  and  _224
REMARK   87  A    between atoms: _227  and  _229
REMARK   88  A    between atoms: _229  and  _230
REMARK   89  A    between atoms: _229  and  _232
REMARK   90  A    between atoms: _232  and  _233
REMARK   91  A    between atoms: _233  and  _234
REMARK   92  A    between atoms: _234  and  _235
REMARK   93  A    between atoms: _244  and  _246
REMARK   94  A    between atoms: _246  and  _247
REMARK   95  A    between atoms: _246  and  _249
REMARK   96  A    between atoms: _249  and  _250
REMARK   97  A    between atoms: _250  and  _251
REMARK   98  A    between atoms: _254  and  _256
REMARK   99  A    between atoms: _256  and  _257
REMARK  100  A    between atoms: _256  and  _259
REMARK  101  A    between atoms: _259  and  _260
REMARK  102  A    between atoms: _265  and  _267
REMARK  103  A    between atoms: _267  and  _268
REMARK  104  A    between atoms: _267  and  _270
REMARK  105  A    between atoms: _270  and  _271
REMARK  106  A    between atoms: _274  and  _276
REMARK  107  A    between atoms: _276  and  _277
REMARK  108  A    between atoms: _276  and  _279
REMARK  109  A    between atoms: _279  and  _280
REMARK  110  A    between atoms: _283  and  _285
REMARK  111  A    between atoms: _285  and  _286
REMARK  112  A    between atoms: _285  and  _288
REMARK  113  A    between atoms: _288  and  _289
REMARK  114  A    between atoms: _294  and  _296
REMARK  115  A    between atoms: _296  and  _297
REMARK  116  A    between atoms: _296  and  _299
REMARK  117  A    between atoms: _299  and  _300
REMARK  118  A    between atoms: _303  and  _305
REMARK  119  A    between atoms: _305  and  _306
REMARK  120  A    between atoms: _305  and  _308
REMARK  121  A    between atoms: _308  and  _309
REMARK  122  A    between atoms: _314  and  _316
REMARK  123  A    between atoms: _316  and  _317
REMARK  124  A    between atoms: _316  and  _319
REMARK  125  A    between atoms: _319  and  _320
REMARK  126  A    between atoms: _325  and  _327
REMARK  127  A    between atoms: _327  and  _328
REMARK  128  A    between atoms: _327  and  _330
REMARK  129  A    between atoms: _330  and  _331
REMARK  130  A    between atoms: _334  and  _336
REMARK  131  A    between atoms: _336  and  _337
REMARK  132  A    between atoms: _336  and  _339
REMARK  133  A    between atoms: _342  and  _344
REMARK  134  A    between atoms: _344  and  _345
REMARK  135  A    between atoms: _344  and  _347
REMARK  136  A    between atoms: _347  and  _348
REMARK  137  A    between atoms: _351  and  _353
REMARK  138  A    between atoms: _353  and  _354
REMARK  139  A    between atoms: _353  and  _356
REMARK  140  A    between atoms: _356  and  _357
REMARK  141  A    between atoms: _357  and  _358
REMARK  142  A    between atoms: _361  and  _363
REMARK  143  A    between atoms: _363  and  _364
REMARK  144  A    between atoms: _367  and  _369
REMARK  145  A    between atoms: _369  and  _370
REMARK  146  A    between atoms: _369  and  _372
REMARK  147  A    between atoms: _372  and  _373
REMARK  148  A    between atoms: _376  and  _378
REMARK  149  A    between atoms: _378  and  _379
REMARK  150  A    between atoms: _378  and  _381
REMARK  151  A    between atoms: _381  and  _382
REMARK  152  A    between atoms: _382  and  _383
REMARK  153  A    between atoms: _386  and  _388
REMARK  154  A    between atoms: _388  and  _389
REMARK  155  A    between atoms: _388  and  _391
REMARK  156  A    between atoms: _391  and  _392
REMARK  157  A    between atoms: _397  and  _399
REMARK  158  A    between atoms: _399  and  _400
REMARK  159  A    between atoms: _402  and  _404
REMARK  160  A    between atoms: _404  and  _405
REMARK  161  A    between atoms: _404  and  _407
REMARK  162  A    between atoms: _410  and  _412
REMARK  163  A    between atoms: _412  and  _413
REMARK  164  A    between atoms: _416  and  _418
REMARK  165  A    between atoms: _418  and  _419
REMARK  166  A    between atoms: _418  and  _421
REMARK  167  A    between atoms: _421  and  _422
REMARK  168  A    between atoms: _427  and  _429
REMARK  169  A    between atoms: _429  and  _430
REMARK  170  A    between atoms: _429  and  _432
REMARK  171  A    between atoms: _432  and  _433
REMARK  172  A    between atoms: _433  and  _434
REMARK  173  A    between atoms: _434  and  _435
REMARK  174  A    between atoms: _435  and  _436
REMARK  175  A    between atoms: _440  and  _442
REMARK  176  A    between atoms: _442  and  _443
REMARK  177  A    between atoms: _442  and  _445
REMARK  178  A    between atoms: _445  and  _446
REMARK  179  A    between atoms: _449  and  _451
REMARK  180  A    between atoms: _451  and  _452
REMARK  181  A    between atoms: _451  and  _454
REMARK  182  A    between atoms: _454  and  _455
REMARK  183  A    between atoms: _460  and  _462
REMARK  184  A    between atoms: _462  and  _463
REMARK  185  A    between atoms: _465  and  _467
REMARK  186  A    between atoms: _467  and  _468
REMARK  187  A    between atoms: _467  and  _470
REMARK  188  A    between atoms: _470  and  _471
REMARK  189  A    between atoms: _471  and  _472
REMARK  190  A    between atoms: _472  and  _473
REMARK  191  A    between atoms: _473  and  _474
REMARK  192  A    between atoms: _478  and  _480
REMARK  193  A    between atoms: _480  and  _481
REMARK  194  A    between atoms: _480  and  _483
REMARK  195  A    between atoms: _483  and  _484
REMARK  196  A    between atoms: _484  and  _485
REMARK  197  A    between atoms: _485  and  _486
REMARK  198  A    between atoms: _495  and  _497
REMARK  199  A    between atoms: _497  and  _498
REMARK  200  A    between atoms: _497  and  _500
REMARK  201  A    between atoms: _500  and  _501
REMARK  202  A    between atoms: _506  and  _507
REMARK  203  A    between atoms: _509  and  _511
REMARK  204  A    between atoms: _511  and  _512
REMARK  205  A    between atoms: _511  and  _514
REMARK  206  A    between atoms: _514  and  _515
REMARK  207  A    between atoms: _515  and  _516
REMARK  208  A    between atoms: _516  and  _517
REMARK  209  A    between atoms: _517  and  _518
REMARK  210  A    between atoms: _522  and  _524
REMARK  211  A    between atoms: _524  and  _525
REMARK  212  A    between atoms: _524  and  _527
REMARK  213  A    between atoms: _527  and  _528
REMARK  214  A    between atoms: _530  and  _532
REMARK  215  A    between atoms: _532  and  _533
REMARK  216  A    between atoms: _532  and  _535
REMARK  217  A    between atoms: _535  and  _536
REMARK  218  A    between atoms: _539  and  _541
REMARK  219  A    between atoms: _541  and  _542
REMARK  220  A    between atoms: _541  and  _544
REMARK  221  A    between atoms: _544  and  _545
REMARK  222  A    between atoms: _545  and  _546
REMARK  223  A    between atoms: _549  and  _551
REMARK  224  A    between atoms: _551  and  _552
REMARK  225  A    between atoms: _555  and  _557
REMARK  226  A    between atoms: _557  and  _558
REMARK  227  A    between atoms: _557  and  _560
REMARK  228  A    between atoms: _560  and  _561
REMARK  229  A    between atoms: _563  and  _565
REMARK  230  A    between atoms: _565  and  _566
REMARK  231  A    between atoms: _568  and  _570
REMARK  232  A    between atoms: _570  and  _571
REMARK  233  A    between atoms: _570  and  _573
REMARK  234  A    between atoms: _573  and  _574
REMARK  235  A    between atoms: _577  and  _579
REMARK  236  A    between atoms: _579  and  _580
REMARK  237  A    between atoms: _582  and  _584
REMARK  238  A    between atoms: _584  and  _585
REMARK  239  A    between atoms: _584  and  _587
REMARK  240  A    between atoms: _587  and  _588
REMARK  241  A    between atoms: _593  and  _595
REMARK  242  A    between atoms: _595  and  _596
REMARK  243  A    between atoms: _595  and  _598
REMARK  244  A    between atoms: _598  and  _599
REMARK  245  A    between atoms: _599  and  _600
REMARK  246  A    between atoms: _607  and  _608
REMARK  247  A    between atoms: _608  and  _624
REMARK  248  A    between atoms: _609  and  _611
REMARK  249  A    between atoms: _611  and  _612
REMARK  250  A    between atoms: _612  and  _613
REMARK  251  A    between atoms: _617  and  _619
REMARK  252  A    between atoms: _619  and  _620
REMARK  253  A    between atoms: _619  and  _627
REMARK  254  A    between atoms: _620  and  _621
REMARK  255  A    between atoms: _621  and  _622
REMARK  256  A    between atoms: _622  and  _623
REMARK  257  A    between atoms: _623  and  _624
REMARK  258  A    between atoms: _629  and  _631
REMARK  259  A    between atoms: _631  and  _632
REMARK  260  A    between atoms: _631  and  _634
REMARK  261  A    between atoms: _634  and  _635
REMARK  262  A    between atoms: _638  and  _640
REMARK  263  A    between atoms: _640  and  _641
REMARK  264  A    between atoms: _643  and  _645
REMARK  265  A    between atoms: _645  and  _646
REMARK  266  A    between atoms: _649  and  _651
REMARK  267  A    between atoms: _651  and  _652
REMARK  268  A    between atoms: _651  and  _654
REMARK  269  A    between atoms: _654  and  _655
REMARK  270  A    between atoms: _660  and  _661
REMARK                            x       y       z     vdW  Elec       q    Type
REMARK                         _______ _______ _______ _____ _____    ______ ____
ROOT
ATOM      1  CA  ASP A   5      33.863  29.468  32.186  0.00  0.00    +0.160 C 
ENDROOT
BRANCH   1   4
ATOM      2  C   ASN A   4      34.573  30.152  34.412  0.00  0.00    +0.241 C 
ATOM      3  O   ASN A   4      34.867  28.994  34.735  0.00  0.00    -0.273 OA
ATOM      4  N   ASP A   5      34.046  30.462  33.235  0.00  0.00    -0.297 N 
ATOM      5  H   ASP A   5      33.755  31.444  33.056  0.00  0.00    +0.150 HD
BRANCH   2   6
ATOM      6  CA  ASN A   4      34.798  31.323  35.369  0.00  0.00    +0.158 C 
BRANCH   6   8
ATOM      7  C   PRO A   3      32.904  31.664  36.876  0.00  0.00    +0.241 C 
ATOM      8  N   ASN A   4      34.121  31.174  36.662  0.00  0.00    -0.297 N 
ATOM      9  H   ASN A   4      34.606  30.671  37.432  0.00  0.00    +0.150 HD
ATOM     10  O   PRO A   3      32.270  32.279  36.015  0.00  0.00    -0.273 OA
BRANCH   7  16
ATOM     11  C   TYR A   2      33.738  30.045  39.699  0.00  0.00    +0.244 C 
ATOM     12  N   PRO A   3      33.214  31.242  39.369  0.00  0.00    -0.272 N 
ATOM     13  CD  PRO A   3      33.467  32.511  40.082  0.00  0.00    +0.094 C 
ATOM     14  CG  PRO A   3      32.477  33.475  39.463  0.00  0.00    +0.024 C 
ATOM     15  CB  PRO A   3      31.472  32.650  38.703  0.00  0.00    +0.031 C 
ATOM     16  CA  PRO A   3      32.273  31.424  38.260  0.00  0.00    +0.152 C 
ATOM     17  O   TYR A   2      33.566  29.028  39.024  0.00  0.00    -0.273 OA
BRANCH  11  18
ATOM     18  CA  TYR A   2      34.538  29.973  41.004  0.00  0.00    +0.153 C 
BRANCH  18  21
ATOM     19  C   LEU A   1      32.713  29.157  42.392  0.00  0.00    +0.238 C 
ATOM     20  O   LEU A   1      32.097  30.225  42.298  0.00  0.00    -0.274 OA
ATOM     21  N   TYR A   2      33.934  28.980  41.894  0.00  0.00    -0.297 N 
ATOM     22  H   TYR A   2      34.468  28.122  42.141  0.00  0.00    +0.150 HD
BRANCH  19  23
ATOM     23  CA  LEU A   1      32.088  27.955  43.092  0.00  0.00    +0.145 C 
BRANCH  23  24
ATOM     24  N   LEU A   1      31.598  28.353  44.403  0.00  0.00    -0.238 NA
ATOM     25  H   LEU A   1      30.571  28.437  44.542  0.00  0.00    +0.142 HD
ENDBRANCH  23  24
BRANCH  23  26
ATOM     26  CB  LEU A   1      30.929  27.402  42.234  0.00  0.00    +0.026 C 
BRANCH  26  27
ATOM     27  CG  LEU A   1      31.160  27.144  40.734  0.00  0.00    +0.002 C 
ATOM     28  CD2 LEU A   1      31.967  25.869  40.491  0.00  0.00    +0.000 C 
ATOM     29  CD1 LEU A   1      29.830  27.077  39.978  0.00  0.00    +0.000 C 
ENDBRANCH  26  27
ENDBRANCH  23  26
ENDBRANCH  19  23
ENDBRANCH  18  21
BRANCH  18  30
ATOM     30  CB  TYR A   2      36.008  29.650  40.746  0.00  0.00    +0.055 C 
BRANCH  30  31
ATOM     31  CG  TYR A   2      36.915  30.171  41.836  0.00  0.00    -0.020 A 
ATOM     32  CD2 TYR A   2      37.147  29.430  42.998  0.00  0.00    -0.001 A 
ATOM     33  CE2 TYR A   2      37.988  29.918  44.006  0.00  0.00    +0.036 A 
ATOM     34  CZ  TYR A   2      38.588  31.159  43.851  0.00  0.00    +0.134 A 
ATOM     35  CE1 TYR A   2      38.366  31.910  42.709  0.00  0.00    +0.036 A 
ATOM     36  CD1 TYR A   2      37.531  31.414  41.711  0.00  0.00    -0.001 A 
BRANCH  34  37
ATOM     37  OH  TYR A   2      39.413  31.662  44.830  0.00  0.00    -0.506 OA
ATOM     38  HH  TYR A   2      39.044  32.518  45.163  0.00  0.00    +0.292 HD
ENDBRANCH  34  37
ENDBRANCH  30  31
ENDBRANCH  18  30
ENDBRANCH  11  18
ENDBRANCH   7  16
ENDBRANCH   6   8
BRANCH   6  39
ATOM     39  CB  ASN A   4      36.296  31.553  35.566  0.00  0.00    +0.114 C 
BRANCH  39  40
ATOM     40  CG  ASN A   4      36.589  32.708  36.499  0.00  0.00    +0.222 C 
ATOM     41  ND2 ASN A   4      37.605  32.542  37.341  0.00  0.00    -0.329 N 
ATOM     42 HD21 ASN A   4      37.854  33.298  38.011  0.00  0.00    +0.145 HD
ATOM     43 HD22 ASN A   4      38.150  31.657  37.330  0.00  0.00    +0.145 HD
ATOM     44  OD1 ASN A   4      35.910  33.738  36.471  0.00  0.00    -0.275 OA
ENDBRANCH  39  40
ENDBRANCH   6  39
ENDBRANCH   2   6
ENDBRANCH   1   4
BRANCH   1  45
ATOM     45  C   ASP A   5      35.006  29.632  31.185  0.00  0.00    +0.241 C 
ATOM     46  N   ASN A   6      35.828  28.590  31.046  0.00  0.00    -0.297 N 
ATOM     47  H   ASN A   6      35.641  27.728  31.597  0.00  0.00    +0.150 HD
ATOM     48  O   ASP A   5      35.150  30.692  30.568  0.00  0.00    -0.273 OA
BRANCH  46  49
ATOM     49  CA  ASN A   6      36.987  28.615  30.143  0.00  0.00    +0.158 C 
BRANCH  49  50
ATOM     50  C   ASN A   6      37.960  29.774  30.411  0.00  0.00    +0.241 C 
ATOM     51  N   PHE A   7      38.449  29.862  31.651  0.00  0.00    -0.297 N 
ATOM     52  H   PHE A   7      38.121  29.177  32.362  0.00  0.00    +0.150 HD
ATOM     53  O   ASN A   6      38.248  30.568  29.513  0.00  0.00    -0.273 OA
BRANCH  51  54
ATOM     54  CA  PHE A   7      39.429  30.881  32.059  0.00  0.00    +0.153 C 
BRANCH  54  55
ATOM     55  C   PHE A   7      40.124  30.498  33.371  0.00  0.00    +0.241 C 
ATOM     56  O   PHE A   7      39.463  30.096  34.335  0.00  0.00    -0.273 OA
ATOM     57  N   PHE A   8      41.452  30.635  33.400  0.00  0.00    -0.297 N 
ATOM     58  H   PHE A   8      41.937  31.019  32.564  0.00  0.00    +0.150 HD
BRANCH  57  59
ATOM     59  CA  PHE A   8      42.248  30.261  34.572  0.00  0.00    +0.153 C 
BRANCH  59  60
ATOM     60  C   PHE A   8      42.639  31.453  35.437  0.00  0.00    +0.241 C 
ATOM     61  N   GLU A   9      42.235  31.382  36.701  0.00  0.00    -0.298 N 
ATOM     62  H   GLU A   9      41.655  30.566  36.983  0.00  0.00    +0.150 HD
ATOM     63  O   PHE A   8      43.292  32.393  34.973  0.00  0.00    -0.273 OA
BRANCH  61  64
ATOM     64  CA  GLU A   9      42.554  32.374  37.714  0.00  0.00    +0.137 C 
BRANCH  64  65
ATOM     65  C   GLU A   9      43.392  31.674  38.785  0.00  0.00    +0.227 C 
ATOM     66  O   GLU A   9      42.890  30.808  39.511  0.00  0.00    -0.286 OA
ENDBRANCH  64  65
BRANCH  64  67
ATOM     67  CB  GLU A   9      41.253  32.912  38.316  0.00  0.00    +0.039 C 
BRANCH  67  68
ATOM     68  CG  GLU A   9      41.365  34.252  39.020  0.00  0.00    +0.116 C 
BRANCH  68  69
ATOM     69  CD  GLU A   9      40.044  34.702  39.642  0.00  0.00    +0.365 C 
ATOM     70  OE2 GLU A   9      40.051  35.714  40.375  0.00  0.00    -0.246 OA
ATOM     71  OE1 GLU A   9      39.001  34.050  39.404  0.00  0.00    -0.246 OA
ENDBRANCH  68  69
ENDBRANCH  67  68
ENDBRANCH  64  67
ENDBRANCH  61  64
ENDBRANCH  59  60
BRANCH  59  72
ATOM     72  CB  PHE A   8      43.498  29.460  34.167  0.00  0.00    +0.055 C 
BRANCH  72  73
ATOM     73  CG  PHE A   8      44.465  29.213  35.304  0.00  0.00    -0.020 A 
ATOM     74  CD2 PHE A   8      44.098  28.433  36.399  0.00  0.00    -0.004 A 
ATOM     75  CE2 PHE A   8      44.991  28.202  37.448  0.00  0.00    -0.000 A 
ATOM     76  CZ  PHE A   8      46.264  28.754  37.407  0.00  0.00    -0.000 A 
ATOM     77  CE1 PHE A   8      46.645  29.536  36.322  0.00  0.00    -0.000 A 
ATOM     78  CD1 PHE A   8      45.744  29.764  35.278  0.00  0.00    -0.004 A 
ENDBRANCH  72  73
ENDBRANCH  59  72
ENDBRANCH  57  59
ENDBRANCH  54  55
BRANCH  54  79
ATOM     79  CB  PHE A   7      38.770  32.259  32.194  0.00  0.00    +0.055 C 
BRANCH  79  80
ATOM     80  CG  PHE A   7      39.749  33.384  32.409  0.00  0.00    -0.020 A 
ATOM     81  CD2 PHE A   7      39.936  33.930  33.675  0.00  0.00    -0.004 A 
ATOM     82  CE2 PHE A   7      40.846  34.971  33.880  0.00  0.00    -0.000 A 
ATOM     83  CZ  PHE A   7      41.573  35.475  32.812  0.00  0.00    -0.000 A 
ATOM     84  CE1 PHE A   7      41.392  34.939  31.540  0.00  0.00    -0.000 A 
ATOM     85  CD1 PHE A   7      40.482  33.898  31.345  0.00  0.00    -0.004 A 
ENDBRANCH  79  80
ENDBRANCH  54  79
ENDBRANCH  51  54
ENDBRANCH  49  50
BRANCH  49  86
ATOM     86  CB  ASN A   6      36.532  28.627  28.675  0.00  0.00    +0.114 C 
BRANCH  86  87
ATOM     87  CG  ASN A   6      36.079  27.266  28.194  0.00  0.00    +0.222 C 
ATOM     88  ND2 ASN A   6      34.769  27.058  28.146  0.00  0.00    -0.329 N 
ATOM     89 HD21 ASN A   6      34.112  27.809  28.440  0.00  0.00    +0.145 HD
ATOM     90 HD22 ASN A   6      34.399  26.144  27.815  0.00  0.00    +0.145 HD
ATOM     91  OD1 ASN A   6      36.900  26.414  27.859  0.00  0.00    -0.275 OA
ENDBRANCH  86  87
ENDBRANCH  49  86
ENDBRANCH  46  49
ENDBRANCH   1  45
BRANCH   1  92
ATOM     92  CB  ASP A   5      32.507  29.669  31.507  0.00  0.00    +0.143 C 
BRANCH  92  93
ATOM     93  CG  ASP A   5      32.076  28.470  30.686  0.00  0.00    +0.367 C 
ATOM     94  OD2 ASP A   5      31.724  27.428  31.282  0.00  0.00    -0.246 OA
ATOM     95  OD1 ASP A   5      32.068  28.578  29.438  0.00  0.00    -0.246 OA
ENDBRANCH  92  93
ENDBRANCH   1  92
TORSDOF 35
REMARK  Name = ../refined-set-2016/2qrm/2qrm_pocket.pdb
REMARK  270 active torsions:
REMARK  status: ('A' for Active; 'I' for Inactive)
REMARK    1  A    between atoms: _1  and  _3
REMARK    2  A    between atoms: _3  and  _4
REMARK    3  A    between atoms: _3  and  _6
REMARK    4  A    between atoms: _6  and  _7
REMARK    5  A    between atoms: _12  and  _13
REMARK    6  A    between atoms: _15  and  _17
REMARK    7  A    between atoms: _17  and  _18
REMARK    8  A    between atoms: _17  and  _20
REMARK    9  A    between atoms: _20  and  _21
REMARK   10  A    between atoms: _24  and  _26
REMARK   11  A    between atoms: _26  and  _27
REMARK   12  A    between atoms: _26  and  _29
REMARK   13  A    between atoms: _29  and  _30
REMARK   14  A    between atoms: _30  and  _31
REMARK   15  A    between atoms: _34  and  _36
REMARK   16  A    between atoms: _36  and  _37
REMARK   17  A    between atoms: _39  and  _41
REMARK   18  A    between atoms: _41  and  _42
REMARK   19  A    between atoms: _41  and  _44
REMARK   20  A    between atoms: _44  and  _45
REMARK   21  A    between atoms: _50  and  _52
REMARK   22  A    between atoms: _52  and  _53
REMARK   23  A    between atoms: _55  and  _57
REMARK   24  A    between atoms: _57  and  _58
REMARK   25  A    between atoms: _60  and  _62
REMARK   26  A    between atoms: _62  and  _63
REMARK   27  A    between atoms: _62  and  _65
REMARK   28  A    between atoms: _65  and  _66
REMARK   29  A    between atoms: _69  and  _71
REMARK   30  A    between atoms: _71  and  _72
REMARK   31  A    between atoms: _74  and  _76
REMARK   32  A    between atoms: _76  and  _77
REMARK   33  A    between atoms: _76  and  _79
REMARK   34  A    between atoms: _79  and  _80
REMARK   35  A    between atoms: _80  and  _81
REMARK   36  A    between atoms: _81  and  _82
REMARK   37  A    between atoms: _91  and  _93
REMARK   38  A    between atoms: _93  and  _94
REMARK   39  A    between atoms: _93  and  _96
REMARK   40  A    between atoms: _96  and  _97
REMARK   41  A    between atoms: _100  and  _102
REMARK   42  A    between atoms: _102  and  _103
REMARK   43  A    between atoms: _106  and  _108
REMARK   44  A    between atoms: _108  and  _109
REMARK   45  A    between atoms: _108  and  _111
REMARK   46  A    between atoms: _111  and  _112
REMARK   47  A    between atoms: _118  and  _120
REMARK   48  A    between atoms: _120  and  _121
REMARK   49  A    between atoms: _120  and  _123
REMARK   50  A    between atoms: _123  and  _124
REMARK   51  A    between atoms: _129  and  _130
REMARK   52  A    between atoms: _132  and  _134
REMARK   53  A    between atoms: _134  and  _135
REMARK   54  A    between atoms: _134  and  _137
REMARK   55  A    between atoms: _137  and  _138
REMARK   56  A    between atoms: _141  and  _143
REMARK   57  A    between atoms: _143  and  _144
REMARK   58  A    between atoms: _143  and  _146
REMARK   59  A    between atoms: _146  and  _147
REMARK   60  A    between atoms: _152  and  _153
REMARK   61  A    between atoms: _156  and  _157
REMARK   62  A    between atoms: _162  and  _164
REMARK   63  A    between atoms: _164  and  _165
REMARK   64  A    between atoms: _164  and  _167
REMARK   65  A    between atoms: _167  and  _168
REMARK   66  A    between atoms: _173  and  _175
REMARK   67  A    between atoms: _175  and  _176
REMARK   68  A    between atoms: _175  and  _178
REMARK   69  A    between atoms: _178  and  _179
REMARK   70  A    between atoms: _182  and  _184
REMARK   71  A    between atoms: _184  and  _185
REMARK   72  A    between atoms: _184  and  _187
REMARK   73  A    between atoms: _187  and  _188
REMARK   74  A    between atoms: _193  and  _195
REMARK   75  A    between atoms: _195  and  _196
REMARK   76  A    between atoms: _195  and  _198
REMARK   77  A    between atoms: _198  and  _199
REMARK   78  A    between atoms: _205  and  _207
REMARK   79  A    between atoms: _207  and  _208
REMARK   80  A    between atoms: _207  and  _210
REMARK   81  A    between atoms: _210  and  _211
REMARK   82  A    between atoms: _217  and  _219
REMARK   83  A    between atoms: _219  and  _220
REMARK   84  A    between atoms: _219  and  _222
REMARK   85  A    between atoms: _222  and  _223
REMARK   86  A    between atoms: _223  and  _224
REMARK   87  A    between atoms: _227  and  _229
REMARK   88  A    between atoms: _229  and  _230
REMARK   89  A    between atoms: _229  and  _232
REMARK   90  A    between atoms: _232  and  _233
REMARK   91  A    between atoms: _233  and  _234
REMARK   92  A    between atoms: _234  and  _235
REMARK   93  A    between atoms: _244  and  _246
REMARK   94  A    between atoms: _246  and  _247
REMARK   95  A    between atoms: _246  and  _249
REMARK   96  A    between atoms: _249  and  _250
REMARK   97  A    between atoms: _250  and  _251
REMARK   98  A    between atoms: _254  and  _256
REMARK   99  A    between atoms: _256  and  _257
REMARK  100  A    between atoms: _256  and  _259
REMARK  101  A    between atoms: _259  and  _260
REMARK  102  A    between atoms: _265  and  _267
REMARK  103  A    between atoms: _267  and  _268
REMARK  104  A    between atoms: _267  and  _270
REMARK  105  A    between atoms: _270  and  _271
REMARK  106  A    between atoms: _274  and  _276
REMARK  107  A    between atoms: _276  and  _277
REMARK  108  A    between atoms: _276  and  _279
REMARK  109  A    between atoms: _279  and  _280
REMARK  110  A    between atoms: _283  and  _285
REMARK  111  A    between atoms: _285  and  _286
REMARK  112  A    between atoms: _285  and  _288
REMARK  113  A    between atoms: _288  and  _289
REMARK  114  A    between atoms: _294  and  _296
REMARK  115  A    between atoms: _296  and  _297
REMARK  116  A    between atoms: _296  and  _299
REMARK  117  A    between atoms: _299  and  _300
REMARK  118  A    between atoms: _303  and  _305
REMARK  119  A    between atoms: _305  and  _306
REMARK  120  A    between atoms: _305  and  _308
REMARK  121  A    between atoms: _308  and  _309
REMARK  122  A    between atoms: _314  and  _316
REMARK  123  A    between atoms: _316  and  _317
REMARK  124  A    between atoms: _316  and  _319
REMARK  125  A    between atoms: _319  and  _320
REMARK  126  A    between atoms: _325  and  _327
REMARK  127  A    between atoms: _327  and  _328
REMARK  128  A    between atoms: _327  and  _330
REMARK  129  A    between atoms: _330  and  _331
REMARK  130  A    between atoms: _334  and  _336
REMARK  131  A    between atoms: _336  and  _337
REMARK  132  A    between atoms: _336  and  _339
REMARK  133  A    between atoms: _342  and  _344
REMARK  134  A    between atoms: _344  and  _345
REMARK  135  A    between atoms: _344  and  _347
REMARK  136  A    between atoms: _347  and  _348
REMARK  137  A    between atoms: _351  and  _353
REMARK  138  A    between atoms: _353  and  _354
REMARK  139  A    between atoms: _353  and  _356
REMARK  140  A    between atoms: _356  and  _357
REMARK  141  A    between atoms: _357  and  _358
REMARK  142  A    between atoms: _361  and  _363
REMARK  143  A    between atoms: _363  and  _364
REMARK  144  A    between atoms: _367  and  _369
REMARK  145  A    between atoms: _369  and  _370
REMARK  146  A    between atoms: _369  and  _372
REMARK  147  A    between atoms: _372  and  _373
REMARK  148  A    between atoms: _376  and  _378
REMARK  149  A    between atoms: _378  and  _379
REMARK  150  A    between atoms: _378  and  _381
REMARK  151  A    between atoms: _381  and  _382
REMARK  152  A    between atoms: _382  and  _383
REMARK  153  A    between atoms: _386  and  _388
REMARK  154  A    between atoms: _388  and  _389
REMARK  155  A    between atoms: _388  and  _391
REMARK  156  A    between atoms: _391  and  _392
REMARK  157  A    between atoms: _397  and  _399
REMARK  158  A    between atoms: _399  and  _400
REMARK  159  A    between atoms: _402  and  _404
REMARK  160  A    between atoms: _404  and  _405
REMARK  161  A    between atoms: _404  and  _407
REMARK  162  A    between atoms: _410  and  _412
REMARK  163  A    between atoms: _412  and  _413
REMARK  164  A    between atoms: _416  and  _418
REMARK  165  A    between atoms: _418  and  _419
REMARK  166  A    between atoms: _418  and  _421
REMARK  167  A    between atoms: _421  and  _422
REMARK  168  A    between atoms: _427  and  _429
REMARK  169  A    between atoms: _429  and  _430
REMARK  170  A    between atoms: _429  and  _432
REMARK  171  A    between atoms: _432  and  _433
REMARK  172  A    between atoms: _433  and  _434
REMARK  173  A    between atoms: _434  and  _435
REMARK  174  A    between atoms: _435  and  _436
REMARK  175  A    between atoms: _440  and  _442
REMARK  176  A    between atoms: _442  and  _443
REMARK  177  A    between atoms: _442  and  _445
REMARK  178  A    between atoms: _445  and  _446
REMARK  179  A    between atoms: _449  and  _451
REMARK  180  A    between atoms: _451  and  _452
REMARK  181  A    between atoms: _451  and  _454
REMARK  182  A    between atoms: _454  and  _455
REMARK  183  A    between atoms: _460  and  _462
REMARK  184  A    between atoms: _462  and  _463
REMARK  185  A    between atoms: _465  and  _467
REMARK  186  A    between atoms: _467  and  _468
REMARK  187  A    between atoms: _467  and  _470
REMARK  188  A    between atoms: _470  and  _471
REMARK  189  A    between atoms: _471  and  _472
REMARK  190  A    between atoms: _472  and  _473
REMARK  191  A    between atoms: _473  and  _474
REMARK  192  A    between atoms: _478  and  _480
REMARK  193  A    between atoms: _480  and  _481
REMARK  194  A    between atoms: _480  and  _483
REMARK  195  A    between atoms: _483  and  _484
REMARK  196  A    between atoms: _484  and  _485
REMARK  197  A    between atoms: _485  and  _486
REMARK  198  A    between atoms: _495  and  _497
REMARK  199  A    between atoms: _497  and  _498
REMARK  200  A    between atoms: _497  and  _500
REMARK  201  A    between atoms: _500  and  _501
REMARK  202  A    between atoms: _506  and  _507
REMARK  203  A    between atoms: _509  and  _511
REMARK  204  A    between atoms: _511  and  _512
REMARK  205  A    between atoms: _511  and  _514
REMARK  206  A    between atoms: _514  and  _515
REMARK  207  A    between atoms: _515  and  _516
REMARK  208  A    between atoms: _516  and  _517
REMARK  209  A    between atoms: _517  and  _518
REMARK  210  A    between atoms: _522  and  _524
REMARK  211  A    between atoms: _524  and  _525
REMARK  212  A    between atoms: _524  and  _527
REMARK  213  A    between atoms: _527  and  _528
REMARK  214  A    between atoms: _530  and  _532
REMARK  215  A    between atoms: _532  and  _533
REMARK  216  A    between atoms: _532  and  _535
REMARK  217  A    between atoms: _535  and  _536
REMARK  218  A    between atoms: _539  and  _541
REMARK  219  A    between atoms: _541  and  _542
REMARK  220  A    between atoms: _541  and  _544
REMARK  221  A    between atoms: _544  and  _545
REMARK  222  A    between atoms: _545  and  _546
REMARK  223  A    between atoms: _549  and  _551
REMARK  224  A    between atoms: _551  and  _552
REMARK  225  A    between atoms: _555  and  _557
REMARK  226  A    between atoms: _557  and  _558
REMARK  227  A    between atoms: _557  and  _560
REMARK  228  A    between atoms: _560  and  _561
REMARK  229  A    between atoms: _563  and  _565
REMARK  230  A    between atoms: _565  and  _566
REMARK  231  A    between atoms: _568  and  _570
REMARK  232  A    between atoms: _570  and  _571
REMARK  233  A    between atoms: _570  and  _573
REMARK  234  A    between atoms: _573  and  _574
REMARK  235  A    between atoms: _577  and  _579
REMARK  236  A    between atoms: _579  and  _580
REMARK  237  A    between atoms: _582  and  _584
REMARK  238  A    between atoms: _584  and  _585
REMARK  239  A    between atoms: _584  and  _587
REMARK  240  A    between atoms: _587  and  _588
REMARK  241  A    between atoms: _593  and  _595
REMARK  242  A    between atoms: _595  and  _596
REMARK  243  A    between atoms: _595  and  _598
REMARK  244  A    between atoms: _598  and  _599
REMARK  245  A    between atoms: _599  and  _600
REMARK  246  A    between atoms: _607  and  _608
REMARK  247  A    between atoms: _608  and  _624
REMARK  248  A    between atoms: _609  and  _611
REMARK  249  A    between atoms: _611  and  _612
REMARK  250  A    between atoms: _612  and  _613
REMARK  251  A    between atoms: _617  and  _619
REMARK  252  A    between atoms: _619  and  _620
REMARK  253  A    between atoms: _619  and  _627
REMARK  254  A    between atoms: _620  and  _621
REMARK  255  A    between atoms: _621  and  _622
REMARK  256  A    between atoms: _622  and  _623
REMARK  257  A    between atoms: _623  and  _624
REMARK  258  A    between atoms: _629  and  _631
REMARK  259  A    between atoms: _631  and  _632
REMARK  260  A    between atoms: _631  and  _634
REMARK  261  A    between atoms: _634  and  _635
REMARK  262  A    between atoms: _638  and  _640
REMARK  263  A    between atoms: _640  and  _641
REMARK  264  A    between atoms: _643  and  _645
REMARK  265  A    between atoms: _645  and  _646
REMARK  266  A    between atoms: _649  and  _651
REMARK  267  A    between atoms: _651  and  _652
REMARK  268  A    between atoms: _651  and  _654
REMARK  269  A    between atoms: _654  and  _655
REMARK  270  A    between atoms: _660  and  _661
REMARK                            x       y       z     vdW  Elec       q    Type
REMARK                         _______ _______ _______ _____ _____    ______ ____
ROOT
ATOM      1  NE  ARG A   1      39.520  25.912  40.146  0.00  0.00    -0.265 N 
ATOM      2  HE  ARG A   1      40.397  25.689  39.634  0.00  0.00    +0.259 HD
ATOM      3  CZ  ARG A   1      38.372  25.541  39.584  0.00  0.00    +0.342 C 
ATOM      4  NH2 ARG A   1      37.210  25.784  40.179  0.00  0.00    -0.292 N 
ATOM      5 HH21 ARG A   1      37.188  26.271  41.098  0.00  0.00    +0.255 HD
ATOM      6 HH22 ARG A   1      36.322  25.487  39.726  0.00  0.00    +0.255 HD
ATOM      7  NH1 ARG A   1      38.392  24.928  38.407  0.00  0.00    -0.292 N 
ATOM      8 HH11 ARG A   1      37.501  24.634  37.959  0.00  0.00    +0.255 HD
ATOM      9 HH12 ARG A   1      39.299  24.742  37.933  0.00  0.00    +0.255 HD
ENDROOT
BRANCH   1  10
ATOM     10  CD  ARG A   1      39.648  26.609  41.427  0.00  0.00    +0.174 C 
BRANCH  10  11
ATOM     11  CG  ARG A   1      41.018  27.271  41.534  0.00  0.00    +0.045 C 
BRANCH  11  12
ATOM     12  CB  ARG A   1      41.118  28.269  42.696  0.00  0.00    +0.029 C 
BRANCH  12  13
ATOM     13  CA  ARG A   1      41.077  27.644  44.093  0.00  0.00    +0.133 C 
BRANCH  13  14
ATOM     14  N   ARG A   1      41.390  28.639  45.124  0.00  0.00    -0.239 NA
ATOM     15  H   ARG A   1      41.746  29.574  44.840  0.00  0.00    +0.142 HD
ENDBRANCH  13  14
BRANCH  13  16
ATOM     16  C   ARG A   1      41.999  26.427  44.189  0.00  0.00    +0.224 C 
ATOM     17  O   ARG A   1      41.555  25.296  44.025  0.00  0.00    -0.287 OA
ENDBRANCH  13  16
ENDBRANCH  12  13
ENDBRANCH  11  12
ENDBRANCH  10  11
ENDBRANCH   1  10
TORSDOF 6
REMARK  Name = ../refined-set-2016/2qrm/2qrm_pocket.pdb
REMARK  270 active torsions:
REMARK  status: ('A' for Active; 'I' for Inactive)
REMARK    1  A    between atoms: _1  and  _3
REMARK    2  A    between atoms: _3  and  _4
REMARK    3  A    between atoms: _3  and  _6
REMARK    4  A    between atoms: _6  and  _7
REMARK    5  A    between atoms: _12  and  _13
REMARK    6  A    between atoms: _15  and  _17
REMARK    7  A    between atoms: _17  and  _18
REMARK    8  A    between atoms: _17  and  _20
REMARK    9  A    between atoms: _20  and  _21
REMARK   10  A    between atoms: _24  and  _26
REMARK   11  A    between atoms: _26  and  _27
REMARK   12  A    between atoms: _26  and  _29
REMARK   13  A    between atoms: _29  and  _30
REMARK   14  A    between atoms: _30  and  _31
REMARK   15  A    between atoms: _34  and  _36
REMARK   16  A    between atoms: _36  and  _37
REMARK   17  A    between atoms: _39  and  _41
REMARK   18  A    between atoms: _41  and  _42
REMARK   19  A    between atoms: _41  and  _44
REMARK   20  A    between atoms: _44  and  _45
REMARK   21  A    between atoms: _50  and  _52
REMARK   22  A    between atoms: _52  and  _53
REMARK   23  A    between atoms: _55  and  _57
REMARK   24  A    between atoms: _57  and  _58
REMARK   25  A    between atoms: _60  and  _62
REMARK   26  A    between atoms: _62  and  _63
REMARK   27  A    between atoms: _62  and  _65
REMARK   28  A    between atoms: _65  and  _66
REMARK   29  A    between atoms: _69  and  _71
REMARK   30  A    between atoms: _71  and  _72
REMARK   31  A    between atoms: _74  and  _76
REMARK   32  A    between atoms: _76  and  _77
REMARK   33  A    between atoms: _76  and  _79
REMARK   34  A    between atoms: _79  and  _80
REMARK   35  A    between atoms: _80  and  _81
REMARK   36  A    between atoms: _81  and  _82
REMARK   37  A    between atoms: _91  and  _93
REMARK   38  A    between atoms: _93  and  _94
REMARK   39  A    between atoms: _93  and  _96
REMARK   40  A    between atoms: _96  and  _97
REMARK   41  A    between atoms: _100  and  _102
REMARK   42  A    between atoms: _102  and  _103
REMARK   43  A    between atoms: _106  and  _108
REMARK   44  A    between atoms: _108  and  _109
REMARK   45  A    between atoms: _108  and  _111
REMARK   46  A    between atoms: _111  and  _112
REMARK   47  A    between atoms: _118  and  _120
REMARK   48  A    between atoms: _120  and  _121
REMARK   49  A    between atoms: _120  and  _123
REMARK   50  A    between atoms: _123  and  _124
REMARK   51  A    between atoms: _129  and  _130
REMARK   52  A    between atoms: _132  and  _134
REMARK   53  A    between atoms: _134  and  _135
REMARK   54  A    between atoms: _134  and  _137
REMARK   55  A    between atoms: _137  and  _138
REMARK   56  A    between atoms: _141  and  _143
REMARK   57  A    between atoms: _143  and  _144
REMARK   58  A    between atoms: _143  and  _146
REMARK   59  A    between atoms: _146  and  _147
REMARK   60  A    between atoms: _152  and  _153
REMARK   61  A    between atoms: _156  and  _157
REMARK   62  A    between atoms: _162  and  _164
REMARK   63  A    between atoms: _164  and  _165
REMARK   64  A    between atoms: _164  and  _167
REMARK   65  A    between atoms: _167  and  _168
REMARK   66  A    between atoms: _173  and  _175
REMARK   67  A    between atoms: _175  and  _176
REMARK   68  A    between atoms: _175  and  _178
REMARK   69  A    between atoms: _178  and  _179
REMARK   70  A    between atoms: _182  and  _184
REMARK   71  A    between atoms: _184  and  _185
REMARK   72  A    between atoms: _184  and  _187
REMARK   73  A    between atoms: _187  and  _188
REMARK   74  A    between atoms: _193  and  _195
REMARK   75  A    between atoms: _195  and  _196
REMARK   76  A    between atoms: _195  and  _198
REMARK   77  A    between atoms: _198  and  _199
REMARK   78  A    between atoms: _205  and  _207
REMARK   79  A    between atoms: _207  and  _208
REMARK   80  A    between atoms: _207  and  _210
REMARK   81  A    between atoms: _210  and  _211
REMARK   82  A    between atoms: _217  and  _219
REMARK   83  A    between atoms: _219  and  _220
REMARK   84  A    between atoms: _219  and  _222
REMARK   85  A    between atoms: _222  and  _223
REMARK   86  A    between atoms: _223  and  _224
REMARK   87  A    between atoms: _227  and  _229
REMARK   88  A    between atoms: _229  and  _230
REMARK   89  A    between atoms: _229  and  _232
REMARK   90  A    between atoms: _232  and  _233
REMARK   91  A    between atoms: _233  and  _234
REMARK   92  A    between atoms: _234  and  _235
REMARK   93  A    between atoms: _244  and  _246
REMARK   94  A    between atoms: _246  and  _247
REMARK   95  A    between atoms: _246  and  _249
REMARK   96  A    between atoms: _249  and  _250
REMARK   97  A    between atoms: _250  and  _251
REMARK   98  A    between atoms: _254  and  _256
REMARK   99  A    between atoms: _256  and  _257
REMARK  100  A    between atoms: _256  and  _259
REMARK  101  A    between atoms: _259  and  _260
REMARK  102  A    between atoms: _265  and  _267
REMARK  103  A    between atoms: _267  and  _268
REMARK  104  A    between atoms: _267  and  _270
REMARK  105  A    between atoms: _270  and  _271
REMARK  106  A    between atoms: _274  and  _276
REMARK  107  A    between atoms: _276  and  _277
REMARK  108  A    between atoms: _276  and  _279
REMARK  109  A    between atoms: _279  and  _280
REMARK  110  A    between atoms: _283  and  _285
REMARK  111  A    between atoms: _285  and  _286
REMARK  112  A    between atoms: _285  and  _288
REMARK  113  A    between atoms: _288  and  _289
REMARK  114  A    between atoms: _294  and  _296
REMARK  115  A    between atoms: _296  and  _297
REMARK  116  A    between atoms: _296  and  _299
REMARK  117  A    between atoms: _299  and  _300
REMARK  118  A    between atoms: _303  and  _305
REMARK  119  A    between atoms: _305  and  _306
REMARK  120  A    between atoms: _305  and  _308
REMARK  121  A    between atoms: _308  and  _309
REMARK  122  A    between atoms: _314  and  _316
REMARK  123  A    between atoms: _316  and  _317
REMARK  124  A    between atoms: _316  and  _319
REMARK  125  A    between atoms: _319  and  _320
REMARK  126  A    between atoms: _325  and  _327
REMARK  127  A    between atoms: _327  and  _328
REMARK  128  A    between atoms: _327  and  _330
REMARK  129  A    between atoms: _330  and  _331
REMARK  130  A    between atoms: _334  and  _336
REMARK  131  A    between atoms: _336  and  _337
REMARK  132  A    between atoms: _336  and  _339
REMARK  133  A    between atoms: _342  and  _344
REMARK  134  A    between atoms: _344  and  _345
REMARK  135  A    between atoms: _344  and  _347
REMARK  136  A    between atoms: _347  and  _348
REMARK  137  A    between atoms: _351  and  _353
REMARK  138  A    between atoms: _353  and  _354
REMARK  139  A    between atoms: _353  and  _356
REMARK  140  A    between atoms: _356  and  _357
REMARK  141  A    between atoms: _357  and  _358
REMARK  142  A    between atoms: _361  and  _363
REMARK  143  A    between atoms: _363  and  _364
REMARK  144  A    between atoms: _367  and  _369
REMARK  145  A    between atoms: _369  and  _370
REMARK  146  A    between atoms: _369  and  _372
REMARK  147  A    between atoms: _372  and  _373
REMARK  148  A    between atoms: _376  and  _378
REMARK  149  A    between atoms: _378  and  _379
REMARK  150  A    between atoms: _378  and  _381
REMARK  151  A    between atoms: _381  and  _382
REMARK  152  A    between atoms: _382  and  _383
REMARK  153  A    between atoms: _386  and  _388
REMARK  154  A    between atoms: _388  and  _389
REMARK  155  A    between atoms: _388  and  _391
REMARK  156  A    between atoms: _391  and  _392
REMARK  157  A    between atoms: _397  and  _399
REMARK  158  A    between atoms: _399  and  _400
REMARK  159  A    between atoms: _402  and  _404
REMARK  160  A    between atoms: _404  and  _405
REMARK  161  A    between atoms: _404  and  _407
REMARK  162  A    between atoms: _410  and  _412
REMARK  163  A    between atoms: _412  and  _413
REMARK  164  A    between atoms: _416  and  _418
REMARK  165  A    between atoms: _418  and  _419
REMARK  166  A    between atoms: _418  and  _421
REMARK  167  A    between atoms: _421  and  _422
REMARK  168  A    between atoms: _427  and  _429
REMARK  169  A    between atoms: _429  and  _430
REMARK  170  A    between atoms: _429  and  _432
REMARK  171  A    between atoms: _432  and  _433
REMARK  172  A    between atoms: _433  and  _434
REMARK  173  A    between atoms: _434  and  _435
REMARK  174  A    between atoms: _435  and  _436
REMARK  175  A    between atoms: _440  and  _442
REMARK  176  A    between atoms: _442  and  _443
REMARK  177  A    between atoms: _442  and  _445
REMARK  178  A    between atoms: _445  and  _446
REMARK  179  A    between atoms: _449  and  _451
REMARK  180  A    between atoms: _451  and  _452
REMARK  181  A    between atoms: _451  and  _454
REMARK  182  A    between atoms: _454  and  _455
REMARK  183  A    between atoms: _460  and  _462
REMARK  184  A    between atoms: _462  and  _463
REMARK  185  A    between atoms: _465  and  _467
REMARK  186  A    between atoms: _467  and  _468
REMARK  187  A    between atoms: _467  and  _470
REMARK  188  A    between atoms: _470  and  _471
REMARK  189  A    between atoms: _471  and  _472
REMARK  190  A    between atoms: _472  and  _473
REMARK  191  A    between atoms: _473  and  _474
REMARK  192  A    between atoms: _478  and  _480
REMARK  193  A    between atoms: _480  and  _481
REMARK  194  A    between atoms: _480  and  _483
REMARK  195  A    between atoms: _483  and  _484
REMARK  196  A    between atoms: _484  and  _485
REMARK  197  A    between atoms: _485  and  _486
REMARK  198  A    between atoms: _495  and  _497
REMARK  199  A    between atoms: _497  and  _498
REMARK  200  A    between atoms: _497  and  _500
REMARK  201  A    between atoms: _500  and  _501
REMARK  202  A    between atoms: _506  and  _507
REMARK  203  A    between atoms: _509  and  _511
REMARK  204  A    between atoms: _511  and  _512
REMARK  205  A    between atoms: _511  and  _514
REMARK  206  A    between atoms: _514  and  _515
REMARK  207  A    between atoms: _515  and  _516
REMARK  208  A    between atoms: _516  and  _517
REMARK  209  A    between atoms: _517  and  _518
REMARK  210  A    between atoms: _522  and  _524
REMARK  211  A    between atoms: _524  and  _525
REMARK  212  A    between atoms: _524  and  _527
REMARK  213  A    between atoms: _527  and  _528
REMARK  214  A    between atoms: _530  and  _532
REMARK  215  A    between atoms: _532  and  _533
REMARK  216  A    between atoms: _532  and  _535
REMARK  217  A    between atoms: _535  and  _536
REMARK  218  A    between atoms: _539  and  _541
REMARK  219  A    between atoms: _541  and  _542
REMARK  220  A    between atoms: _541  and  _544
REMARK  221  A    between atoms: _544  and  _545
REMARK  222  A    between atoms: _545  and  _546
REMARK  223  A    between atoms: _549  and  _551
REMARK  224  A    between atoms: _551  and  _552
REMARK  225  A    between atoms: _555  and  _557
REMARK  226  A    between atoms: _557  and  _558
REMARK  227  A    between atoms: _557  and  _560
REMARK  228  A    between atoms: _560  and  _561
REMARK  229  A    between atoms: _563  and  _565
REMARK  230  A    between atoms: _565  and  _566
REMARK  231  A    between atoms: _568  and  _570
REMARK  232  A    between atoms: _570  and  _571
REMARK  233  A    between atoms: _570  and  _573
REMARK  234  A    between atoms: _573  and  _574
REMARK  235  A    between atoms: _577  and  _579
REMARK  236  A    between atoms: _579  and  _580
REMARK  237  A    between atoms: _582  and  _584
REMARK  238  A    between atoms: _584  and  _585
REMARK  239  A    between atoms: _584  and  _587
REMARK  240  A    between atoms: _587  and  _588
REMARK  241  A    between atoms: _593  and  _595
REMARK  242  A    between atoms: _595  and  _596
REMARK  243  A    between atoms: _595  and  _598
REMARK  244  A    between atoms: _598  and  _599
REMARK  245  A    between atoms: _599  and  _600
REMARK  246  A    between atoms: _607  and  _608
REMARK  247  A    between atoms: _608  and  _624
REMARK  248  A    between atoms: _609  and  _611
REMARK  249  A    between atoms: _611  and  _612
REMARK  250  A    between atoms: _612  and  _613
REMARK  251  A    between atoms: _617  and  _619
REMARK  252  A    between atoms: _619  and  _620
REMARK  253  A    between atoms: _619  and  _627
REMARK  254  A    between atoms: _620  and  _621
REMARK  255  A    between atoms: _621  and  _622
REMARK  256  A    between atoms: _622  and  _623
REMARK  257  A    between atoms: _623  and  _624
REMARK  258  A    between atoms: _629  and  _631
REMARK  259  A    between atoms: _631  and  _632
REMARK  260  A    between atoms: _631  and  _634
REMARK  261  A    between atoms: _634  and  _635
REMARK  262  A    between atoms: _638  and  _640
REMARK  263  A    between atoms: _640  and  _641
REMARK  264  A    between atoms: _643  and  _645
REMARK  265  A    between atoms: _645  and  _646
REMARK  266  A    between atoms: _649  and  _651
REMARK  267  A    between atoms: _651  and  _652
REMARK  268  A    between atoms: _651  and  _654
REMARK  269  A    between atoms: _654  and  _655
REMARK  270  A    between atoms: _660  and  _661
REMARK                            x       y       z     vdW  Elec       q    Type
REMARK                         _______ _______ _______ _____ _____    ______ ____
ROOT
ATOM      1  CA  GLU A   1      41.452  21.325  44.123  0.00  0.00    +0.134 C 
ENDROOT
BRANCH   1   2
ATOM      2  N   GLU A   1      40.993  22.429  44.954  0.00  0.00    -0.239 NA
ATOM      3  H   GLU A   1      41.410  23.372  44.817  0.00  0.00    +0.142 HD
ENDBRANCH   1   2
BRANCH   1   4
ATOM      4  C   GLU A   1      42.151  20.235  44.932  0.00  0.00    +0.224 C 
ATOM      5  O   GLU A   1      41.902  19.049  44.713  0.00  0.00    -0.287 OA
ENDBRANCH   1   4
BRANCH   1   6
ATOM      6  CB  GLU A   1      42.340  21.841  42.987  0.00  0.00    +0.037 C 
BRANCH   6   7
ATOM      7  CG  GLU A   1      41.566  22.648  41.951  0.00  0.00    +0.116 C 
BRANCH   7   8
ATOM      8  CD  GLU A   1      42.434  23.189  40.830  0.00  0.00    +0.365 C 
ATOM      9  OE2 GLU A   1      43.676  23.093  40.926  0.00  0.00    -0.246 OA
ATOM     10  OE1 GLU A   1      41.866  23.711  39.847  0.00  0.00    -0.246 OA
ENDBRANCH   7   8
ENDBRANCH   6   7
ENDBRANCH   1   6
TORSDOF 5
REMARK  Name = ../refined-set-2016/2qrm/2qrm_pocket.pdb
REMARK  270 active torsions:
REMARK  status: ('A' for Active; 'I' for Inactive)
REMARK    1  A    between atoms: _1  and  _3
REMARK    2  A    between atoms: _3  and  _4
REMARK    3  A    between atoms: _3  and  _6
REMARK    4  A    between atoms: _6  and  _7
REMARK    5  A    between atoms: _12  and  _13
REMARK    6  A    between atoms: _15  and  _17
REMARK    7  A    between atoms: _17  and  _18
REMARK    8  A    between atoms: _17  and  _20
REMARK    9  A    between atoms: _20  and  _21
REMARK   10  A    between atoms: _24  and  _26
REMARK   11  A    between atoms: _26  and  _27
REMARK   12  A    between atoms: _26  and  _29
REMARK   13  A    between atoms: _29  and  _30
REMARK   14  A    between atoms: _30  and  _31
REMARK   15  A    between atoms: _34  and  _36
REMARK   16  A    between atoms: _36  and  _37
REMARK   17  A    between atoms: _39  and  _41
REMARK   18  A    between atoms: _41  and  _42
REMARK   19  A    between atoms: _41  and  _44
REMARK   20  A    between atoms: _44  and  _45
REMARK   21  A    between atoms: _50  and  _52
REMARK   22  A    between atoms: _52  and  _53
REMARK   23  A    between atoms: _55  and  _57
REMARK   24  A    between atoms: _57  and  _58
REMARK   25  A    between atoms: _60  and  _62
REMARK   26  A    between atoms: _62  and  _63
REMARK   27  A    between atoms: _62  and  _65
REMARK   28  A    between atoms: _65  and  _66
REMARK   29  A    between atoms: _69  and  _71
REMARK   30  A    between atoms: _71  and  _72
REMARK   31  A    between atoms: _74  and  _76
REMARK   32  A    between atoms: _76  and  _77
REMARK   33  A    between atoms: _76  and  _79
REMARK   34  A    between atoms: _79  and  _80
REMARK   35  A    between atoms: _80  and  _81
REMARK   36  A    between atoms: _81  and  _82
REMARK   37  A    between atoms: _91  and  _93
REMARK   38  A    between atoms: _93  and  _94
REMARK   39  A    between atoms: _93  and  _96
REMARK   40  A    between atoms: _96  and  _97
REMARK   41  A    between atoms: _100  and  _102
REMARK   42  A    between atoms: _102  and  _103
REMARK   43  A    between atoms: _106  and  _108
REMARK   44  A    between atoms: _108  and  _109
REMARK   45  A    between atoms: _108  and  _111
REMARK   46  A    between atoms: _111  and  _112
REMARK   47  A    between atoms: _118  and  _120
REMARK   48  A    between atoms: _120  and  _121
REMARK   49  A    between atoms: _120  and  _123
REMARK   50  A    between atoms: _123  and  _124
REMARK   51  A    between atoms: _129  and  _130
REMARK   52  A    between atoms: _132  and  _134
REMARK   53  A    between atoms: _134  and  _135
REMARK   54  A    between atoms: _134  and  _137
REMARK   55  A    between atoms: _137  and  _138
REMARK   56  A    between atoms: _141  and  _143
REMARK   57  A    between atoms: _143  and  _144
REMARK   58  A    between atoms: _143  and  _146
REMARK   59  A    between atoms: _146  and  _147
REMARK   60  A    between atoms: _152  and  _153
REMARK   61  A    between atoms: _156  and  _157
REMARK   62  A    between atoms: _162  and  _164
REMARK   63  A    between atoms: _164  and  _165
REMARK   64  A    between atoms: _164  and  _167
REMARK   65  A    between atoms: _167  and  _168
REMARK   66  A    between atoms: _173  and  _175
REMARK   67  A    between atoms: _175  and  _176
REMARK   68  A    between atoms: _175  and  _178
REMARK   69  A    between atoms: _178  and  _179
REMARK   70  A    between atoms: _182  and  _184
REMARK   71  A    between atoms: _184  and  _185
REMARK   72  A    between atoms: _184  and  _187
REMARK   73  A    between atoms: _187  and  _188
REMARK   74  A    between atoms: _193  and  _195
REMARK   75  A    between atoms: _195  and  _196
REMARK   76  A    between atoms: _195  and  _198
REMARK   77  A    between atoms: _198  and  _199
REMARK   78  A    between atoms: _205  and  _207
REMARK   79  A    between atoms: _207  and  _208
REMARK   80  A    between atoms: _207  and  _210
REMARK   81  A    between atoms: _210  and  _211
REMARK   82  A    between atoms: _217  and  _219
REMARK   83  A    between atoms: _219  and  _220
REMARK   84  A    between atoms: _219  and  _222
REMARK   85  A    between atoms: _222  and  _223
REMARK   86  A    between atoms: _223  and  _224
REMARK   87  A    between atoms: _227  and  _229
REMARK   88  A    between atoms: _229  and  _230
REMARK   89  A    between atoms: _229  and  _232
REMARK   90  A    between atoms: _232  and  _233
REMARK   91  A    between atoms: _233  and  _234
REMARK   92  A    between atoms: _234  and  _235
REMARK   93  A    between atoms: _244  and  _246
REMARK   94  A    between atoms: _246  and  _247
REMARK   95  A    between atoms: _246  and  _249
REMARK   96  A    between atoms: _249  and  _250
REMARK   97  A    between atoms: _250  and  _251
REMARK   98  A    between atoms: _254  and  _256
REMARK   99  A    between atoms: _256  and  _257
REMARK  100  A    between atoms: _256  and  _259
REMARK  101  A    between atoms: _259  and  _260
REMARK  102  A    between atoms: _265  and  _267
REMARK  103  A    between atoms: _267  and  _268
REMARK  104  A    between atoms: _267  and  _270
REMARK  105  A    between atoms: _270  and  _271
REMARK  106  A    between atoms: _274  and  _276
REMARK  107  A    between atoms: _276  and  _277
REMARK  108  A    between atoms: _276  and  _279
REMARK  109  A    between atoms: _279  and  _280
REMARK  110  A    between atoms: _283  and  _285
REMARK  111  A    between atoms: _285  and  _286
REMARK  112  A    between atoms: _285  and  _288
REMARK  113  A    between atoms: _288  and  _289
REMARK  114  A    between atoms: _294  and  _296
REMARK  115  A    between atoms: _296  and  _297
REMARK  116  A    between atoms: _296  and  _299
REMARK  117  A    between atoms: _299  and  _300
REMARK  118  A    between atoms: _303  and  _305
REMARK  119  A    between atoms: _305  and  _306
REMARK  120  A    between atoms: _305  and  _308
REMARK  121  A    between atoms: _308  and  _309
REMARK  122  A    between atoms: _314  and  _316
REMARK  123  A    between atoms: _316  and  _317
REMARK  124  A    between atoms: _316  and  _319
REMARK  125  A    between atoms: _319  and  _320
REMARK  126  A    between atoms: _325  and  _327
REMARK  127  A    between atoms: _327  and  _328
REMARK  128  A    between atoms: _327  and  _330
REMARK  129  A    between atoms: _330  and  _331
REMARK  130  A    between atoms: _334  and  _336
REMARK  131  A    between atoms: _336  and  _337
REMARK  132  A    between atoms: _336  and  _339
REMARK  133  A    between atoms: _342  and  _344
REMARK  134  A    between atoms: _344  and  _345
REMARK  135  A    between atoms: _344  and  _347
REMARK  136  A    between atoms: _347  and  _348
REMARK  137  A    between atoms: _351  and  _353
REMARK  138  A    between atoms: _353  and  _354
REMARK  139  A    between atoms: _353  and  _356
REMARK  140  A    between atoms: _356  and  _357
REMARK  141  A    between atoms: _357  and  _358
REMARK  142  A    between atoms: _361  and  _363
REMARK  143  A    between atoms: _363  and  _364
REMARK  144  A    between atoms: _367  and  _369
REMARK  145  A    between atoms: _369  and  _370
REMARK  146  A    between atoms: _369  and  _372
REMARK  147  A    between atoms: _372  and  _373
REMARK  148  A    between atoms: _376  and  _378
REMARK  149  A    between atoms: _378  and  _379
REMARK  150  A    between atoms: _378  and  _381
REMARK  151  A    between atoms: _381  and  _382
REMARK  152  A    between atoms: _382  and  _383
REMARK  153  A    between atoms: _386  and  _388
REMARK  154  A    between atoms: _388  and  _389
REMARK  155  A    between atoms: _388  and  _391
REMARK  156  A    between atoms: _391  and  _392
REMARK  157  A    between atoms: _397  and  _399
REMARK  158  A    between atoms: _399  and  _400
REMARK  159  A    between atoms: _402  and  _404
REMARK  160  A    between atoms: _404  and  _405
REMARK  161  A    between atoms: _404  and  _407
REMARK  162  A    between atoms: _410  and  _412
REMARK  163  A    between atoms: _412  and  _413
REMARK  164  A    between atoms: _416  and  _418
REMARK  165  A    between atoms: _418  and  _419
REMARK  166  A    between atoms: _418  and  _421
REMARK  167  A    between atoms: _421  and  _422
REMARK  168  A    between atoms: _427  and  _429
REMARK  169  A    between atoms: _429  and  _430
REMARK  170  A    between atoms: _429  and  _432
REMARK  171  A    between atoms: _432  and  _433
REMARK  172  A    between atoms: _433  and  _434
REMARK  173  A    between atoms: _434  and  _435
REMARK  174  A    between atoms: _435  and  _436
REMARK  175  A    between atoms: _440  and  _442
REMARK  176  A    between atoms: _442  and  _443
REMARK  177  A    between atoms: _442  and  _445
REMARK  178  A    between atoms: _445  and  _446
REMARK  179  A    between atoms: _449  and  _451
REMARK  180  A    between atoms: _451  and  _452
REMARK  181  A    between atoms: _451  and  _454
REMARK  182  A    between atoms: _454  and  _455
REMARK  183  A    between atoms: _460  and  _462
REMARK  184  A    between atoms: _462  and  _463
REMARK  185  A    between atoms: _465  and  _467
REMARK  186  A    between atoms: _467  and  _468
REMARK  187  A    between atoms: _467  and  _470
REMARK  188  A    between atoms: _470  and  _471
REMARK  189  A    between atoms: _471  and  _472
REMARK  190  A    between atoms: _472  and  _473
REMARK  191  A    between atoms: _473  and  _474
REMARK  192  A    between atoms: _478  and  _480
REMARK  193  A    between atoms: _480  and  _481
REMARK  194  A    between atoms: _480  and  _483
REMARK  195  A    between atoms: _483  and  _484
REMARK  196  A    between atoms: _484  and  _485
REMARK  197  A    between atoms: _485  and  _486
REMARK  198  A    between atoms: _495  and  _497
REMARK  199  A    between atoms: _497  and  _498
REMARK  200  A    between atoms: _497  and  _500
REMARK  201  A    between atoms: _500  and  _501
REMARK  202  A    between atoms: _506  and  _507
REMARK  203  A    between atoms: _509  and  _511
REMARK  204  A    between atoms: _511  and  _512
REMARK  205  A    between atoms: _511  and  _514
REMARK  206  A    between atoms: _514  and  _515
REMARK  207  A    between atoms: _515  and  _516
REMARK  208  A    between atoms: _516  and  _517
REMARK  209  A    between atoms: _517  and  _518
REMARK  210  A    between atoms: _522  and  _524
REMARK  211  A    between atoms: _524  and  _525
REMARK  212  A    between atoms: _524  and  _527
REMARK  213  A    between atoms: _527  and  _528
REMARK  214  A    between atoms: _530  and  _532
REMARK  215  A    between atoms: _532  and  _533
REMARK  216  A    between atoms: _532  and  _535
REMARK  217  A    between atoms: _535  and  _536
REMARK  218  A    between atoms: _539  and  _541
REMARK  219  A    between atoms: _541  and  _542
REMARK  220  A    between atoms: _541  and  _544
REMARK  221  A    between atoms: _544  and  _545
REMARK  222  A    between atoms: _545  and  _546
REMARK  223  A    between atoms: _549  and  _551
REMARK  224  A    between atoms: _551  and  _552
REMARK  225  A    between atoms: _555  and  _557
REMARK  226  A    between atoms: _557  and  _558
REMARK  227  A    between atoms: _557  and  _560
REMARK  228  A    between atoms: _560  and  _561
REMARK  229  A    between atoms: _563  and  _565
REMARK  230  A    between atoms: _565  and  _566
REMARK  231  A    between atoms: _568  and  _570
REMARK  232  A    between atoms: _570  and  _571
REMARK  233  A    between atoms: _570  and  _573
REMARK  234  A    between atoms: _573  and  _574
REMARK  235  A    between atoms: _577  and  _579
REMARK  236  A    between atoms: _579  and  _580
REMARK  237  A    between atoms: _582  and  _584
REMARK  238  A    between atoms: _584  and  _585
REMARK  239  A    between atoms: _584  and  _587
REMARK  240  A    between atoms: _587  and  _588
REMARK  241  A    between atoms: _593  and  _595
REMARK  242  A    between atoms: _595  and  _596
REMARK  243  A    between atoms: _595  and  _598
REMARK  244  A    between atoms: _598  and  _599
REMARK  245  A    between atoms: _599  and  _600
REMARK  246  A    between atoms: _607  and  _608
REMARK  247  A    between atoms: _608  and  _624
REMARK  248  A    between atoms: _609  and  _611
REMARK  249  A    between atoms: _611  and  _612
REMARK  250  A    between atoms: _612  and  _613
REMARK  251  A    between atoms: _617  and  _619
REMARK  252  A    between atoms: _619  and  _620
REMARK  253  A    between atoms: _619  and  _627
REMARK  254  A    between atoms: _620  and  _621
REMARK  255  A    between atoms: _621  and  _622
REMARK  256  A    between atoms: _622  and  _623
REMARK  257  A    between atoms: _623  and  _624
REMARK  258  A    between atoms: _629  and  _631
REMARK  259  A    between atoms: _631  and  _632
REMARK  260  A    between atoms: _631  and  _634
REMARK  261  A    between atoms: _634  and  _635
REMARK  262  A    between atoms: _638  and  _640
REMARK  263  A    between atoms: _640  and  _641
REMARK  264  A    between atoms: _643  and  _645
REMARK  265  A    between atoms: _645  and  _646
REMARK  266  A    between atoms: _649  and  _651
REMARK  267  A    between atoms: _651  and  _652
REMARK  268  A    between atoms: _651  and  _654
REMARK  269  A    between atoms: _654  and  _655
REMARK  270  A    between atoms: _660  and  _661
REMARK                            x       y       z     vdW  Elec       q    Type
REMARK                         _______ _______ _______ _____ _____    ______ ____
ROOT
ATOM      1  C   ASP A   2      41.254  18.260  34.038  0.00  0.00    +0.241 C 
ATOM      2  O   ASP A   2      41.423  17.229  34.689  0.00  0.00    -0.273 OA
ATOM      3  N   THR A   3      42.064  19.311  34.140  0.00  0.00    -0.295 N 
ATOM      4  H   THR A   3      41.861  20.165  33.582  0.00  0.00    +0.150 HD
ENDROOT
BRANCH   1   5
ATOM      5  CA  ASP A   2      40.086  18.370  33.043  0.00  0.00    +0.160 C 
BRANCH   5   8
ATOM      6  C   ASN A   1      38.357  17.175  34.351  0.00  0.00    +0.239 C 
ATOM      7  O   ASN A   1      38.260  18.055  35.216  0.00  0.00    -0.274 OA
ATOM      8  N   ASP A   2      39.098  17.303  33.251  0.00  0.00    -0.297 N 
ATOM      9  H   ASP A   2      38.969  16.604  32.492  0.00  0.00    +0.150 HD
BRANCH   6  10
ATOM     10  CA  ASN A   1      37.615  15.840  34.491  0.00  0.00    +0.154 C 
BRANCH  10  11
ATOM     11  N   ASN A   1      38.407  14.932  35.318  0.00  0.00    -0.238 NA
ATOM     12  H   ASN A   1      38.161  14.833  36.324  0.00  0.00    +0.142 HD
ENDBRANCH  10  11
BRANCH  10  13
ATOM     13  CB  ASN A   1      36.213  16.039  35.097  0.00  0.00    +0.111 C 
BRANCH  13  14
ATOM     14  CG  ASN A   1      35.200  16.583  34.091  0.00  0.00    +0.221 C 
ATOM     15  ND2 ASN A   1      34.194  17.302  34.590  0.00  0.00    -0.329 N 
ATOM     16 HD21 ASN A   1      34.132  17.469  35.615  0.00  0.00    +0.145 HD
ATOM     17 HD22 ASN A   1      33.471  17.696  33.955  0.00  0.00    +0.145 HD
ATOM     18  OD1 ASN A   1      35.319  16.356  32.885  0.00  0.00    -0.275 OA
ENDBRANCH  13  14
ENDBRANCH  10  13
ENDBRANCH   6  10
ENDBRANCH   5   8
BRANCH   5  19
ATOM     19  CB  ASP A   2      39.439  19.764  33.056  0.00  0.00    +0.143 C 
BRANCH  19  20
ATOM     20  CG  ASP A   2      40.103  20.712  32.077  0.00  0.00    +0.367 C 
ATOM     21  OD2 ASP A   2      41.186  21.232  32.396  0.00  0.00    -0.246 OA
ATOM     22  OD1 ASP A   2      39.567  20.908  30.968  0.00  0.00    -0.246 OA
ENDBRANCH  19  20
ENDBRANCH   5  19
ENDBRANCH   1   5
BRANCH   3  23
ATOM     23  CA  THR A   3      43.236  19.293  35.022  0.00  0.00    +0.176 C 
BRANCH  23  24
ATOM     24  C   THR A   3      42.893  19.701  36.453  0.00  0.00    +0.243 C 
ATOM     25  O   THR A   3      43.754  19.676  37.329  0.00  0.00    -0.273 OA
ATOM     26  N   HIS A   4      41.641  20.076  36.699  0.00  0.00    -0.298 N 
ATOM     27  H   HIS A   4      40.922  20.013  35.950  0.00  0.00    +0.150 HD
BRANCH  26  28
ATOM     28  CA  HIS A   4      41.274  20.579  38.029  0.00  0.00    +0.143 C 
BRANCH  28  29
ATOM     29  C   HIS A   4      41.587  19.607  39.181  0.00  0.00    +0.227 C 
ATOM     30  O   HIS A   4      42.032  20.046  40.239  0.00  0.00    -0.286 OA
ENDBRANCH  28  29
BRANCH  28  31
ATOM     31  CB  HIS A   4      39.822  21.090  38.076  0.00  0.00    +0.075 C 
BRANCH  31  32
ATOM     32  CG  HIS A   4      39.427  21.905  36.881  0.00  0.00    +0.082 A 
ATOM     33  ND1 HIS A   4      38.147  21.902  36.371  0.00  0.00    -0.227 NA
ATOM     34  CE1 HIS A   4      38.094  22.693  35.313  0.00  0.00    +0.199 A 
ATOM     35  NE2 HIS A   4      39.296  23.208  35.117  0.00  0.00    -0.221 NA
ATOM     36  CD2 HIS A   4      40.149  22.725  36.079  0.00  0.00    +0.115 A 
ENDBRANCH  31  32
ENDBRANCH  28  31
ENDBRANCH  26  28
ENDBRANCH  23  24
BRANCH  23  37
ATOM     37  CB  THR A   3      44.358  20.225  34.509  0.00  0.00    +0.137 C 
ATOM     38  CG2 THR A   3      44.846  19.784  33.132  0.00  0.00    +0.034 C 
BRANCH  37  39
ATOM     39  OG1 THR A   3      43.866  21.567  34.429  0.00  0.00    -0.382 OA
ATOM     40  HG1 THR A   3      43.575  21.864  35.327  0.00  0.00    +0.210 HD
ENDBRANCH  37  39
ENDBRANCH  23  37
ENDBRANCH   3  23
TORSDOF 16
REMARK  Name = ../refined-set-2016/2qrm/2qrm_pocket.pdb
REMARK  270 active torsions:
REMARK  status: ('A' for Active; 'I' for Inactive)
REMARK    1  A    between atoms: _1  and  _3
REMARK    2  A    between atoms: _3  and  _4
REMARK    3  A    between atoms: _3  and  _6
REMARK    4  A    between atoms: _6  and  _7
REMARK    5  A    between atoms: _12  and  _13
REMARK    6  A    between atoms: _15  and  _17
REMARK    7  A    between atoms: _17  and  _18
REMARK    8  A    between atoms: _17  and  _20
REMARK    9  A    between atoms: _20  and  _21
REMARK   10  A    between atoms: _24  and  _26
REMARK   11  A    between atoms: _26  and  _27
REMARK   12  A    between atoms: _26  and  _29
REMARK   13  A    between atoms: _29  and  _30
REMARK   14  A    between atoms: _30  and  _31
REMARK   15  A    between atoms: _34  and  _36
REMARK   16  A    between atoms: _36  and  _37
REMARK   17  A    between atoms: _39  and  _41
REMARK   18  A    between atoms: _41  and  _42
REMARK   19  A    between atoms: _41  and  _44
REMARK   20  A    between atoms: _44  and  _45
REMARK   21  A    between atoms: _50  and  _52
REMARK   22  A    between atoms: _52  and  _53
REMARK   23  A    between atoms: _55  and  _57
REMARK   24  A    between atoms: _57  and  _58
REMARK   25  A    between atoms: _60  and  _62
REMARK   26  A    between atoms: _62  and  _63
REMARK   27  A    between atoms: _62  and  _65
REMARK   28  A    between atoms: _65  and  _66
REMARK   29  A    between atoms: _69  and  _71
REMARK   30  A    between atoms: _71  and  _72
REMARK   31  A    between atoms: _74  and  _76
REMARK   32  A    between atoms: _76  and  _77
REMARK   33  A    between atoms: _76  and  _79
REMARK   34  A    between atoms: _79  and  _80
REMARK   35  A    between atoms: _80  and  _81
REMARK   36  A    between atoms: _81  and  _82
REMARK   37  A    between atoms: _91  and  _93
REMARK   38  A    between atoms: _93  and  _94
REMARK   39  A    between atoms: _93  and  _96
REMARK   40  A    between atoms: _96  and  _97
REMARK   41  A    between atoms: _100  and  _102
REMARK   42  A    between atoms: _102  and  _103
REMARK   43  A    between atoms: _106  and  _108
REMARK   44  A    between atoms: _108  and  _109
REMARK   45  A    between atoms: _108  and  _111
REMARK   46  A    between atoms: _111  and  _112
REMARK   47  A    between atoms: _118  and  _120
REMARK   48  A    between atoms: _120  and  _121
REMARK   49  A    between atoms: _120  and  _123
REMARK   50  A    between atoms: _123  and  _124
REMARK   51  A    between atoms: _129  and  _130
REMARK   52  A    between atoms: _132  and  _134
REMARK   53  A    between atoms: _134  and  _135
REMARK   54  A    between atoms: _134  and  _137
REMARK   55  A    between atoms: _137  and  _138
REMARK   56  A    between atoms: _141  and  _143
REMARK   57  A    between atoms: _143  and  _144
REMARK   58  A    between atoms: _143  and  _146
REMARK   59  A    between atoms: _146  and  _147
REMARK   60  A    between atoms: _152  and  _153
REMARK   61  A    between atoms: _156  and  _157
REMARK   62  A    between atoms: _162  and  _164
REMARK   63  A    between atoms: _164  and  _165
REMARK   64  A    between atoms: _164  and  _167
REMARK   65  A    between atoms: _167  and  _168
REMARK   66  A    between atoms: _173  and  _175
REMARK   67  A    between atoms: _175  and  _176
REMARK   68  A    between atoms: _175  and  _178
REMARK   69  A    between atoms: _178  and  _179
REMARK   70  A    between atoms: _182  and  _184
REMARK   71  A    between atoms: _184  and  _185
REMARK   72  A    between atoms: _184  and  _187
REMARK   73  A    between atoms: _187  and  _188
REMARK   74  A    between atoms: _193  and  _195
REMARK   75  A    between atoms: _195  and  _196
REMARK   76  A    between atoms: _195  and  _198
REMARK   77  A    between atoms: _198  and  _199
REMARK   78  A    between atoms: _205  and  _207
REMARK   79  A    between atoms: _207  and  _208
REMARK   80  A    between atoms: _207  and  _210
REMARK   81  A    between atoms: _210  and  _211
REMARK   82  A    between atoms: _217  and  _219
REMARK   83  A    between atoms: _219  and  _220
REMARK   84  A    between atoms: _219  and  _222
REMARK   85  A    between atoms: _222  and  _223
REMARK   86  A    between atoms: _223  and  _224
REMARK   87  A    between atoms: _227  and  _229
REMARK   88  A    between atoms: _229  and  _230
REMARK   89  A    between atoms: _229  and  _232
REMARK   90  A    between atoms: _232  and  _233
REMARK   91  A    between atoms: _233  and  _234
REMARK   92  A    between atoms: _234  and  _235
REMARK   93  A    between atoms: _244  and  _246
REMARK   94  A    between atoms: _246  and  _247
REMARK   95  A    between atoms: _246  and  _249
REMARK   96  A    between atoms: _249  and  _250
REMARK   97  A    between atoms: _250  and  _251
REMARK   98  A    between atoms: _254  and  _256
REMARK   99  A    between atoms: _256  and  _257
REMARK  100  A    between atoms: _256  and  _259
REMARK  101  A    between atoms: _259  and  _260
REMARK  102  A    between atoms: _265  and  _267
REMARK  103  A    between atoms: _267  and  _268
REMARK  104  A    between atoms: _267  and  _270
REMARK  105  A    between atoms: _270  and  _271
REMARK  106  A    between atoms: _274  and  _276
REMARK  107  A    between atoms: _276  and  _277
REMARK  108  A    between atoms: _276  and  _279
REMARK  109  A    between atoms: _279  and  _280
REMARK  110  A    between atoms: _283  and  _285
REMARK  111  A    between atoms: _285  and  _286
REMARK  112  A    between atoms: _285  and  _288
REMARK  113  A    between atoms: _288  and  _289
REMARK  114  A    between atoms: _294  and  _296
REMARK  115  A    between atoms: _296  and  _297
REMARK  116  A    between atoms: _296  and  _299
REMARK  117  A    between atoms: _299  and  _300
REMARK  118  A    between atoms: _303  and  _305
REMARK  119  A    between atoms: _305  and  _306
REMARK  120  A    between atoms: _305  and  _308
REMARK  121  A    between atoms: _308  and  _309
REMARK  122  A    between atoms: _314  and  _316
REMARK  123  A    between atoms: _316  and  _317
REMARK  124  A    between atoms: _316  and  _319
REMARK  125  A    between atoms: _319  and  _320
REMARK  126  A    between atoms: _325  and  _327
REMARK  127  A    between atoms: _327  and  _328
REMARK  128  A    between atoms: _327  and  _330
REMARK  129  A    between atoms: _330  and  _331
REMARK  130  A    between atoms: _334  and  _336
REMARK  131  A    between atoms: _336  and  _337
REMARK  132  A    between atoms: _336  and  _339
REMARK  133  A    between atoms: _342  and  _344
REMARK  134  A    between atoms: _344  and  _345
REMARK  135  A    between atoms: _344  and  _347
REMARK  136  A    between atoms: _347  and  _348
REMARK  137  A    between atoms: _351  and  _353
REMARK  138  A    between atoms: _353  and  _354
REMARK  139  A    between atoms: _353  and  _356
REMARK  140  A    between atoms: _356  and  _357
REMARK  141  A    between atoms: _357  and  _358
REMARK  142  A    between atoms: _361  and  _363
REMARK  143  A    between atoms: _363  and  _364
REMARK  144  A    between atoms: _367  and  _369
REMARK  145  A    between atoms: _369  and  _370
REMARK  146  A    between atoms: _369  and  _372
REMARK  147  A    between atoms: _372  and  _373
REMARK  148  A    between atoms: _376  and  _378
REMARK  149  A    between atoms: _378  and  _379
REMARK  150  A    between atoms: _378  and  _381
REMARK  151  A    between atoms: _381  and  _382
REMARK  152  A    between atoms: _382  and  _383
REMARK  153  A    between atoms: _386  and  _388
REMARK  154  A    between atoms: _388  and  _389
REMARK  155  A    between atoms: _388  and  _391
REMARK  156  A    between atoms: _391  and  _392
REMARK  157  A    between atoms: _397  and  _399
REMARK  158  A    between atoms: _399  and  _400
REMARK  159  A    between atoms: _402  and  _404
REMARK  160  A    between atoms: _404  and  _405
REMARK  161  A    between atoms: _404  and  _407
REMARK  162  A    between atoms: _410  and  _412
REMARK  163  A    between atoms: _412  and  _413
REMARK  164  A    between atoms: _416  and  _418
REMARK  165  A    between atoms: _418  and  _419
REMARK  166  A    between atoms: _418  and  _421
REMARK  167  A    between atoms: _421  and  _422
REMARK  168  A    between atoms: _427  and  _429
REMARK  169  A    between atoms: _429  and  _430
REMARK  170  A    between atoms: _429  and  _432
REMARK  171  A    between atoms: _432  and  _433
REMARK  172  A    between atoms: _433  and  _434
REMARK  173  A    between atoms: _434  and  _435
REMARK  174  A    between atoms: _435  and  _436
REMARK  175  A    between atoms: _440  and  _442
REMARK  176  A    between atoms: _442  and  _443
REMARK  177  A    between atoms: _442  and  _445
REMARK  178  A    between atoms: _445  and  _446
REMARK  179  A    between atoms: _449  and  _451
REMARK  180  A    between atoms: _451  and  _452
REMARK  181  A    between atoms: _451  and  _454
REMARK  182  A    between atoms: _454  and  _455
REMARK  183  A    between atoms: _460  and  _462
REMARK  184  A    between atoms: _462  and  _463
REMARK  185  A    between atoms: _465  and  _467
REMARK  186  A    between atoms: _467  and  _468
REMARK  187  A    between atoms: _467  and  _470
REMARK  188  A    between atoms: _470  and  _471
REMARK  189  A    between atoms: _471  and  _472
REMARK  190  A    between atoms: _472  and  _473
REMARK  191  A    between atoms: _473  and  _474
REMARK  192  A    between atoms: _478  and  _480
REMARK  193  A    between atoms: _480  and  _481
REMARK  194  A    between atoms: _480  and  _483
REMARK  195  A    between atoms: _483  and  _484
REMARK  196  A    between atoms: _484  and  _485
REMARK  197  A    between atoms: _485  and  _486
REMARK  198  A    between atoms: _495  and  _497
REMARK  199  A    between atoms: _497  and  _498
REMARK  200  A    between atoms: _497  and  _500
REMARK  201  A    between atoms: _500  and  _501
REMARK  202  A    between atoms: _506  and  _507
REMARK  203  A    between atoms: _509  and  _511
REMARK  204  A    between atoms: _511  and  _512
REMARK  205  A    between atoms: _511  and  _514
REMARK  206  A    between atoms: _514  and  _515
REMARK  207  A    between atoms: _515  and  _516
REMARK  208  A    between atoms: _516  and  _517
REMARK  209  A    between atoms: _517  and  _518
REMARK  210  A    between atoms: _522  and  _524
REMARK  211  A    between atoms: _524  and  _525
REMARK  212  A    between atoms: _524  and  _527
REMARK  213  A    between atoms: _527  and  _528
REMARK  214  A    between atoms: _530  and  _532
REMARK  215  A    between atoms: _532  and  _533
REMARK  216  A    between atoms: _532  and  _535
REMARK  217  A    between atoms: _535  and  _536
REMARK  218  A    between atoms: _539  and  _541
REMARK  219  A    between atoms: _541  and  _542
REMARK  220  A    between atoms: _541  and  _544
REMARK  221  A    between atoms: _544  and  _545
REMARK  222  A    between atoms: _545  and  _546
REMARK  223  A    between atoms: _549  and  _551
REMARK  224  A    between atoms: _551  and  _552
REMARK  225  A    between atoms: _555  and  _557
REMARK  226  A    between atoms: _557  and  _558
REMARK  227  A    between atoms: _557  and  _560
REMARK  228  A    between atoms: _560  and  _561
REMARK  229  A    between atoms: _563  and  _565
REMARK  230  A    between atoms: _565  and  _566
REMARK  231  A    between atoms: _568  and  _570
REMARK  232  A    between atoms: _570  and  _571
REMARK  233  A    between atoms: _570  and  _573
REMARK  234  A    between atoms: _573  and  _574
REMARK  235  A    between atoms: _577  and  _579
REMARK  236  A    between atoms: _579  and  _580
REMARK  237  A    between atoms: _582  and  _584
REMARK  238  A    between atoms: _584  and  _585
REMARK  239  A    between atoms: _584  and  _587
REMARK  240  A    between atoms: _587  and  _588
REMARK  241  A    between atoms: _593  and  _595
REMARK  242  A    between atoms: _595  and  _596
REMARK  243  A    between atoms: _595  and  _598
REMARK  244  A    between atoms: _598  and  _599
REMARK  245  A    between atoms: _599  and  _600
REMARK  246  A    between atoms: _607  and  _608
REMARK  247  A    between atoms: _608  and  _624
REMARK  248  A    between atoms: _609  and  _611
REMARK  249  A    between atoms: _611  and  _612
REMARK  250  A    between atoms: _612  and  _613
REMARK  251  A    between atoms: _617  and  _619
REMARK  252  A    between atoms: _619  and  _620
REMARK  253  A    between atoms: _619  and  _627
REMARK  254  A    between atoms: _620  and  _621
REMARK  255  A    between atoms: _621  and  _622
REMARK  256  A    between atoms: _622  and  _623
REMARK  257  A    between atoms: _623  and  _624
REMARK  258  A    between atoms: _629  and  _631
REMARK  259  A    between atoms: _631  and  _632
REMARK  260  A    between atoms: _631  and  _634
REMARK  261  A    between atoms: _634  and  _635
REMARK  262  A    between atoms: _638  and  _640
REMARK  263  A    between atoms: _640  and  _641
REMARK  264  A    between atoms: _643  and  _645
REMARK  265  A    between atoms: _645  and  _646
REMARK  266  A    between atoms: _649  and  _651
REMARK  267  A    between atoms: _651  and  _652
REMARK  268  A    between atoms: _651  and  _654
REMARK  269  A    between atoms: _654  and  _655
REMARK  270  A    between atoms: _660  and  _661
REMARK                            x       y       z     vdW  Elec       q    Type
REMARK                         _______ _______ _______ _____ _____    ______ ____
ROOT
ATOM      1  CA  HIS A   3      38.039  20.008  27.487  0.00  0.00    +0.155 C 
ENDROOT
BRANCH   1   3
ATOM      2  C   ASN A   2      39.659  18.160  27.474  0.00  0.00    +0.241 C 
ATOM      3  N   HIS A   3      39.300  19.376  27.887  0.00  0.00    -0.297 N 
ATOM      4  H   HIS A   3      39.941  19.897  28.519  0.00  0.00    +0.150 HD
ATOM      5  O   ASN A   2      39.021  17.505  26.644  0.00  0.00    -0.273 OA
BRANCH   2   6
ATOM      6  CA  ASN A   2      40.935  17.588  28.078  0.00  0.00    +0.158 C 
BRANCH   6   9
ATOM      7  C   THR A   1      40.300  15.763  29.597  0.00  0.00    +0.241 C 
ATOM      8  O   THR A   1      40.146  16.514  30.567  0.00  0.00    -0.274 OA
ATOM      9  N   ASN A   2      40.724  16.177  28.405  0.00  0.00    -0.297 N 
ATOM     10  H   ASN A   2      40.914  15.464  27.672  0.00  0.00    +0.150 HD
BRANCH   7  11
ATOM     11  CA  THR A   1      40.006  14.273  29.719  0.00  0.00    +0.172 C 
BRANCH  11  12
ATOM     12  N   THR A   1      40.819  13.690  30.782  0.00  0.00    -0.236 NA
ATOM     13  H   THR A   1      40.584  13.908  31.771  0.00  0.00    +0.142 HD
ENDBRANCH  11  12
BRANCH  11  14
ATOM     14  CB  THR A   1      38.497  14.072  29.977  0.00  0.00    +0.135 C 
ATOM     15  CG2 THR A   1      37.671  14.630  28.824  0.00  0.00    +0.034 C 
BRANCH  14  16
ATOM     16  OG1 THR A   1      38.221  12.675  30.124  0.00  0.00    -0.383 OA
ATOM     17  HG1 THR A   1      38.481  12.199  29.296  0.00  0.00    +0.210 HD
ENDBRANCH  14  16
ENDBRANCH  11  14
ENDBRANCH   7  11
ENDBRANCH   6   9
BRANCH   6  18
ATOM     18  CB  ASN A   2      42.114  17.737  27.100  0.00  0.00    +0.114 C 
BRANCH  18  19
ATOM     19  CG  ASN A   2      42.283  19.163  26.586  0.00  0.00    +0.222 C 
ATOM     20  ND2 ASN A   2      43.177  19.922  27.214  0.00  0.00    -0.329 N 
ATOM     21 HD21 ASN A   2      43.711  19.538  28.020  0.00  0.00    +0.145 HD
ATOM     22 HD22 ASN A   2      43.342  20.899  26.899  0.00  0.00    +0.145 HD
ATOM     23  OD1 ASN A   2      41.626  19.570  25.628  0.00  0.00    -0.275 OA
ENDBRANCH  18  19
ENDBRANCH   6  18
ENDBRANCH   2   6
ENDBRANCH   1   3
BRANCH   1  24
ATOM     24  C   HIS A   3      38.172  21.307  26.686  0.00  0.00    +0.241 C 
ATOM     25  N   THR A   4      39.396  21.777  26.446  0.00  0.00    -0.295 N 
ATOM     26  H   THR A   4      40.226  21.263  26.805  0.00  0.00    +0.150 HD
ATOM     27  O   HIS A   3      37.162  21.887  26.299  0.00  0.00    -0.273 OA
BRANCH  25  28
ATOM     28  CA  THR A   4      39.582  23.019  25.677  0.00  0.00    +0.176 C 
BRANCH  28  29
ATOM     29  C   THR A   4      41.024  23.233  25.237  0.00  0.00    +0.243 C 
ATOM     30  O   THR A   4      41.950  22.723  25.868  0.00  0.00    -0.273 OA
ATOM     31  N   VAL A   5      41.195  23.983  24.148  0.00  0.00    -0.297 N 
ATOM     32  H   VAL A   5      40.356  24.327  23.638  0.00  0.00    +0.150 HD
BRANCH  31  33
ATOM     33  CA  VAL A   5      42.524  24.340  23.644  0.00  0.00    +0.149 C 
BRANCH  33  34
ATOM     34  C   VAL A   5      42.839  25.822  23.850  0.00  0.00    +0.241 C 
ATOM     35  N   LEU A   6      41.881  26.581  24.381  0.00  0.00    -0.298 N 
ATOM     36  H   LEU A   6      40.962  26.152  24.609  0.00  0.00    +0.150 HD
ATOM     37  O   VAL A   5      43.937  26.265  23.526  0.00  0.00    -0.273 OA
BRANCH  35  38
ATOM     38  CA  LEU A   6      42.092  28.006  24.651  0.00  0.00    +0.137 C 
BRANCH  38  39
ATOM     39  C   LEU A   6      43.191  28.204  25.693  0.00  0.00    +0.227 C 
ATOM     40  O   LEU A   6      43.072  27.711  26.818  0.00  0.00    -0.286 OA
ENDBRANCH  38  39
BRANCH  38  41
ATOM     41  CB  LEU A   6      40.800  28.680  25.116  0.00  0.00    +0.028 C 
BRANCH  41  42
ATOM     42  CG  LEU A   6      39.646  28.743  24.113  0.00  0.00    +0.002 C 
ATOM     43  CD2 LEU A   6      38.323  28.835  24.857  0.00  0.00    +0.000 C 
ATOM     44  CD1 LEU A   6      39.824  29.906  23.138  0.00  0.00    +0.000 C 
ENDBRANCH  41  42
ENDBRANCH  38  41
ENDBRANCH  35  38
ENDBRANCH  33  34
BRANCH  33  45
ATOM     45  CB  VAL A   5      42.721  23.976  22.137  0.00  0.00    +0.027 C 
ATOM     46  CG2 VAL A   5      42.512  22.478  21.897  0.00  0.00    +0.002 C 
ATOM     47  CG1 VAL A   5      41.814  24.829  21.232  0.00  0.00    +0.002 C 
ENDBRANCH  33  45
ENDBRANCH  31  33
ENDBRANCH  28  29
BRANCH  28  48
ATOM     48  CB  THR A   4      39.061  24.283  26.436  0.00  0.00    +0.137 C 
ATOM     49  CG2 THR A   4      39.805  24.496  27.756  0.00  0.00    +0.034 C 
BRANCH  48  50
ATOM     50  OG1 THR A   4      39.194  25.450  25.606  0.00  0.00    -0.382 OA
ATOM     51  HG1 THR A   4      38.665  25.327  24.778  0.00  0.00    +0.210 HD
ENDBRANCH  48  50
ENDBRANCH  28  48
ENDBRANCH  25  28
ENDBRANCH   1  24
BRANCH   1  52
ATOM     52  CB  HIS A   3      37.163  20.282  28.715  0.00  0.00    +0.076 C 
BRANCH  52  53
ATOM     53  CG  HIS A   3      36.673  19.049  29.401  0.00  0.00    +0.082 A 
ATOM     54  CD2 HIS A   3      37.197  18.329  30.421  0.00  0.00    +0.115 A 
ATOM     55  NE2 HIS A   3      36.333  17.292  30.669  0.00  0.00    -0.221 NA
ATOM     56  CE1 HIS A   3      35.311  17.376  29.835  0.00  0.00    +0.199 A 
ATOM     57  ND1 HIS A   3      35.490  18.431  29.061  0.00  0.00    -0.227 NA
ENDBRANCH  52  53
ENDBRANCH   1  52
TORSDOF 23
REMARK  Name = ../refined-set-2016/2qrm/2qrm_pocket.pdb
REMARK  270 active torsions:
REMARK  status: ('A' for Active; 'I' for Inactive)
REMARK    1  A    between atoms: _1  and  _3
REMARK    2  A    between atoms: _3  and  _4
REMARK    3  A    between atoms: _3  and  _6
REMARK    4  A    between atoms: _6  and  _7
REMARK    5  A    between atoms: _12  and  _13
REMARK    6  A    between atoms: _15  and  _17
REMARK    7  A    between atoms: _17  and  _18
REMARK    8  A    between atoms: _17  and  _20
REMARK    9  A    between atoms: _20  and  _21
REMARK   10  A    between atoms: _24  and  _26
REMARK   11  A    between atoms: _26  and  _27
REMARK   12  A    between atoms: _26  and  _29
REMARK   13  A    between atoms: _29  and  _30
REMARK   14  A    between atoms: _30  and  _31
REMARK   15  A    between atoms: _34  and  _36
REMARK   16  A    between atoms: _36  and  _37
REMARK   17  A    between atoms: _39  and  _41
REMARK   18  A    between atoms: _41  and  _42
REMARK   19  A    between atoms: _41  and  _44
REMARK   20  A    between atoms: _44  and  _45
REMARK   21  A    between atoms: _50  and  _52
REMARK   22  A    between atoms: _52  and  _53
REMARK   23  A    between atoms: _55  and  _57
REMARK   24  A    between atoms: _57  and  _58
REMARK   25  A    between atoms: _60  and  _62
REMARK   26  A    between atoms: _62  and  _63
REMARK   27  A    between atoms: _62  and  _65
REMARK   28  A    between atoms: _65  and  _66
REMARK   29  A    between atoms: _69  and  _71
REMARK   30  A    between atoms: _71  and  _72
REMARK   31  A    between atoms: _74  and  _76
REMARK   32  A    between atoms: _76  and  _77
REMARK   33  A    between atoms: _76  and  _79
REMARK   34  A    between atoms: _79  and  _80
REMARK   35  A    between atoms: _80  and  _81
REMARK   36  A    between atoms: _81  and  _82
REMARK   37  A    between atoms: _91  and  _93
REMARK   38  A    between atoms: _93  and  _94
REMARK   39  A    between atoms: _93  and  _96
REMARK   40  A    between atoms: _96  and  _97
REMARK   41  A    between atoms: _100  and  _102
REMARK   42  A    between atoms: _102  and  _103
REMARK   43  A    between atoms: _106  and  _108
REMARK   44  A    between atoms: _108  and  _109
REMARK   45  A    between atoms: _108  and  _111
REMARK   46  A    between atoms: _111  and  _112
REMARK   47  A    between atoms: _118  and  _120
REMARK   48  A    between atoms: _120  and  _121
REMARK   49  A    between atoms: _120  and  _123
REMARK   50  A    between atoms: _123  and  _124
REMARK   51  A    between atoms: _129  and  _130
REMARK   52  A    between atoms: _132  and  _134
REMARK   53  A    between atoms: _134  and  _135
REMARK   54  A    between atoms: _134  and  _137
REMARK   55  A    between atoms: _137  and  _138
REMARK   56  A    between atoms: _141  and  _143
REMARK   57  A    between atoms: _143  and  _144
REMARK   58  A    between atoms: _143  and  _146
REMARK   59  A    between atoms: _146  and  _147
REMARK   60  A    between atoms: _152  and  _153
REMARK   61  A    between atoms: _156  and  _157
REMARK   62  A    between atoms: _162  and  _164
REMARK   63  A    between atoms: _164  and  _165
REMARK   64  A    between atoms: _164  and  _167
REMARK   65  A    between atoms: _167  and  _168
REMARK   66  A    between atoms: _173  and  _175
REMARK   67  A    between atoms: _175  and  _176
REMARK   68  A    between atoms: _175  and  _178
REMARK   69  A    between atoms: _178  and  _179
REMARK   70  A    between atoms: _182  and  _184
REMARK   71  A    between atoms: _184  and  _185
REMARK   72  A    between atoms: _184  and  _187
REMARK   73  A    between atoms: _187  and  _188
REMARK   74  A    between atoms: _193  and  _195
REMARK   75  A    between atoms: _195  and  _196
REMARK   76  A    between atoms: _195  and  _198
REMARK   77  A    between atoms: _198  and  _199
REMARK   78  A    between atoms: _205  and  _207
REMARK   79  A    between atoms: _207  and  _208
REMARK   80  A    between atoms: _207  and  _210
REMARK   81  A    between atoms: _210  and  _211
REMARK   82  A    between atoms: _217  and  _219
REMARK   83  A    between atoms: _219  and  _220
REMARK   84  A    between atoms: _219  and  _222
REMARK   85  A    between atoms: _222  and  _223
REMARK   86  A    between atoms: _223  and  _224
REMARK   87  A    between atoms: _227  and  _229
REMARK   88  A    between atoms: _229  and  _230
REMARK   89  A    between atoms: _229  and  _232
REMARK   90  A    between atoms: _232  and  _233
REMARK   91  A    between atoms: _233  and  _234
REMARK   92  A    between atoms: _234  and  _235
REMARK   93  A    between atoms: _244  and  _246
REMARK   94  A    between atoms: _246  and  _247
REMARK   95  A    between atoms: _246  and  _249
REMARK   96  A    between atoms: _249  and  _250
REMARK   97  A    between atoms: _250  and  _251
REMARK   98  A    between atoms: _254  and  _256
REMARK   99  A    between atoms: _256  and  _257
REMARK  100  A    between atoms: _256  and  _259
REMARK  101  A    between atoms: _259  and  _260
REMARK  102  A    between atoms: _265  and  _267
REMARK  103  A    between atoms: _267  and  _268
REMARK  104  A    between atoms: _267  and  _270
REMARK  105  A    between atoms: _270  and  _271
REMARK  106  A    between atoms: _274  and  _276
REMARK  107  A    between atoms: _276  and  _277
REMARK  108  A    between atoms: _276  and  _279
REMARK  109  A    between atoms: _279  and  _280
REMARK  110  A    between atoms: _283  and  _285
REMARK  111  A    between atoms: _285  and  _286
REMARK  112  A    between atoms: _285  and  _288
REMARK  113  A    between atoms: _288  and  _289
REMARK  114  A    between atoms: _294  and  _296
REMARK  115  A    between atoms: _296  and  _297
REMARK  116  A    between atoms: _296  and  _299
REMARK  117  A    between atoms: _299  and  _300
REMARK  118  A    between atoms: _303  and  _305
REMARK  119  A    between atoms: _305  and  _306
REMARK  120  A    between atoms: _305  and  _308
REMARK  121  A    between atoms: _308  and  _309
REMARK  122  A    between atoms: _314  and  _316
REMARK  123  A    between atoms: _316  and  _317
REMARK  124  A    between atoms: _316  and  _319
REMARK  125  A    between atoms: _319  and  _320
REMARK  126  A    between atoms: _325  and  _327
REMARK  127  A    between atoms: _327  and  _328
REMARK  128  A    between atoms: _327  and  _330
REMARK  129  A    between atoms: _330  and  _331
REMARK  130  A    between atoms: _334  and  _336
REMARK  131  A    between atoms: _336  and  _337
REMARK  132  A    between atoms: _336  and  _339
REMARK  133  A    between atoms: _342  and  _344
REMARK  134  A    between atoms: _344  and  _345
REMARK  135  A    between atoms: _344  and  _347
REMARK  136  A    between atoms: _347  and  _348
REMARK  137  A    between atoms: _351  and  _353
REMARK  138  A    between atoms: _353  and  _354
REMARK  139  A    between atoms: _353  and  _356
REMARK  140  A    between atoms: _356  and  _357
REMARK  141  A    between atoms: _357  and  _358
REMARK  142  A    between atoms: _361  and  _363
REMARK  143  A    between atoms: _363  and  _364
REMARK  144  A    between atoms: _367  and  _369
REMARK  145  A    between atoms: _369  and  _370
REMARK  146  A    between atoms: _369  and  _372
REMARK  147  A    between atoms: _372  and  _373
REMARK  148  A    between atoms: _376  and  _378
REMARK  149  A    between atoms: _378  and  _379
REMARK  150  A    between atoms: _378  and  _381
REMARK  151  A    between atoms: _381  and  _382
REMARK  152  A    between atoms: _382  and  _383
REMARK  153  A    between atoms: _386  and  _388
REMARK  154  A    between atoms: _388  and  _389
REMARK  155  A    between atoms: _388  and  _391
REMARK  156  A    between atoms: _391  and  _392
REMARK  157  A    between atoms: _397  and  _399
REMARK  158  A    between atoms: _399  and  _400
REMARK  159  A    between atoms: _402  and  _404
REMARK  160  A    between atoms: _404  and  _405
REMARK  161  A    between atoms: _404  and  _407
REMARK  162  A    between atoms: _410  and  _412
REMARK  163  A    between atoms: _412  and  _413
REMARK  164  A    between atoms: _416  and  _418
REMARK  165  A    between atoms: _418  and  _419
REMARK  166  A    between atoms: _418  and  _421
REMARK  167  A    between atoms: _421  and  _422
REMARK  168  A    between atoms: _427  and  _429
REMARK  169  A    between atoms: _429  and  _430
REMARK  170  A    between atoms: _429  and  _432
REMARK  171  A    between atoms: _432  and  _433
REMARK  172  A    between atoms: _433  and  _434
REMARK  173  A    between atoms: _434  and  _435
REMARK  174  A    between atoms: _435  and  _436
REMARK  175  A    between atoms: _440  and  _442
REMARK  176  A    between atoms: _442  and  _443
REMARK  177  A    between atoms: _442  and  _445
REMARK  178  A    between atoms: _445  and  _446
REMARK  179  A    between atoms: _449  and  _451
REMARK  180  A    between atoms: _451  and  _452
REMARK  181  A    between atoms: _451  and  _454
REMARK  182  A    between atoms: _454  and  _455
REMARK  183  A    between atoms: _460  and  _462
REMARK  184  A    between atoms: _462  and  _463
REMARK  185  A    between atoms: _465  and  _467
REMARK  186  A    between atoms: _467  and  _468
REMARK  187  A    between atoms: _467  and  _470
REMARK  188  A    between atoms: _470  and  _471
REMARK  189  A    between atoms: _471  and  _472
REMARK  190  A    between atoms: _472  and  _473
REMARK  191  A    between atoms: _473  and  _474
REMARK  192  A    between atoms: _478  and  _480
REMARK  193  A    between atoms: _480  and  _481
REMARK  194  A    between atoms: _480  and  _483
REMARK  195  A    between atoms: _483  and  _484
REMARK  196  A    between atoms: _484  and  _485
REMARK  197  A    between atoms: _485  and  _486
REMARK  198  A    between atoms: _495  and  _497
REMARK  199  A    between atoms: _497  and  _498
REMARK  200  A    between atoms: _497  and  _500
REMARK  201  A    between atoms: _500  and  _501
REMARK  202  A    between atoms: _506  and  _507
REMARK  203  A    between atoms: _509  and  _511
REMARK  204  A    between atoms: _511  and  _512
REMARK  205  A    between atoms: _511  and  _514
REMARK  206  A    between atoms: _514  and  _515
REMARK  207  A    between atoms: _515  and  _516
REMARK  208  A    between atoms: _516  and  _517
REMARK  209  A    between atoms: _517  and  _518
REMARK  210  A    between atoms: _522  and  _524
REMARK  211  A    between atoms: _524  and  _525
REMARK  212  A    between atoms: _524  and  _527
REMARK  213  A    between atoms: _527  and  _528
REMARK  214  A    between atoms: _530  and  _532
REMARK  215  A    between atoms: _532  and  _533
REMARK  216  A    between atoms: _532  and  _535
REMARK  217  A    between atoms: _535  and  _536
REMARK  218  A    between atoms: _539  and  _541
REMARK  219  A    between atoms: _541  and  _542
REMARK  220  A    between atoms: _541  and  _544
REMARK  221  A    between atoms: _544  and  _545
REMARK  222  A    between atoms: _545  and  _546
REMARK  223  A    between atoms: _549  and  _551
REMARK  224  A    between atoms: _551  and  _552
REMARK  225  A    between atoms: _555  and  _557
REMARK  226  A    between atoms: _557  and  _558
REMARK  227  A    between atoms: _557  and  _560
REMARK  228  A    between atoms: _560  and  _561
REMARK  229  A    between atoms: _563  and  _565
REMARK  230  A    between atoms: _565  and  _566
REMARK  231  A    between atoms: _568  and  _570
REMARK  232  A    between atoms: _570  and  _571
REMARK  233  A    between atoms: _570  and  _573
REMARK  234  A    between atoms: _573  and  _574
REMARK  235  A    between atoms: _577  and  _579
REMARK  236  A    between atoms: _579  and  _580
REMARK  237  A    between atoms: _582  and  _584
REMARK  238  A    between atoms: _584  and  _585
REMARK  239  A    between atoms: _584  and  _587
REMARK  240  A    between atoms: _587  and  _588
REMARK  241  A    between atoms: _593  and  _595
REMARK  242  A    between atoms: _595  and  _596
REMARK  243  A    between atoms: _595  and  _598
REMARK  244  A    between atoms: _598  and  _599
REMARK  245  A    between atoms: _599  and  _600
REMARK  246  A    between atoms: _607  and  _608
REMARK  247  A    between atoms: _608  and  _624
REMARK  248  A    between atoms: _609  and  _611
REMARK  249  A    between atoms: _611  and  _612
REMARK  250  A    between atoms: _612  and  _613
REMARK  251  A    between atoms: _617  and  _619
REMARK  252  A    between atoms: _619  and  _620
REMARK  253  A    between atoms: _619  and  _627
REMARK  254  A    between atoms: _620  and  _621
REMARK  255  A    between atoms: _621  and  _622
REMARK  256  A    between atoms: _622  and  _623
REMARK  257  A    between atoms: _623  and  _624
REMARK  258  A    between atoms: _629  and  _631
REMARK  259  A    between atoms: _631  and  _632
REMARK  260  A    between atoms: _631  and  _634
REMARK  261  A    between atoms: _634  and  _635
REMARK  262  A    between atoms: _638  and  _640
REMARK  263  A    between atoms: _640  and  _641
REMARK  264  A    between atoms: _643  and  _645
REMARK  265  A    between atoms: _645  and  _646
REMARK  266  A    between atoms: _649  and  _651
REMARK  267  A    between atoms: _651  and  _652
REMARK  268  A    between atoms: _651  and  _654
REMARK  269  A    between atoms: _654  and  _655
REMARK  270  A    between atoms: _660  and  _661
REMARK                            x       y       z     vdW  Elec       q    Type
REMARK                         _______ _______ _______ _____ _____    ______ ____
ROOT
ATOM      1  C   ALA A   2      42.821  27.268  30.912  0.00  0.00    +0.241 C 
ATOM      2  O   ALA A   2      42.404  26.552  31.830  0.00  0.00    -0.273 OA
ATOM      3  N   LEU A   3      44.061  27.184  30.436  0.00  0.00    -0.297 N 
ATOM      4  H   LEU A   3      44.382  27.878  29.731  0.00  0.00    +0.150 HD
ENDROOT
BRANCH   1   5
ATOM      5  CA  ALA A   2      41.916  28.321  30.267  0.00  0.00    +0.149 C 
ATOM      6  CB  ALA A   2      40.795  27.650  29.473  0.00  0.00    +0.031 C 
BRANCH   5   9
ATOM      7  C   GLU A   1      43.152  30.400  29.882  0.00  0.00    +0.238 C 
ATOM      8  O   GLU A   1      43.024  30.753  31.056  0.00  0.00    -0.274 OA
ATOM      9  N   ALA A   2      42.658  29.255  29.415  0.00  0.00    -0.297 N 
ATOM     10  H   ALA A   2      42.803  29.016  28.413  0.00  0.00    +0.150 HD
BRANCH   7  11
ATOM     11  CA  GLU A   1      43.911  31.290  28.883  0.00  0.00    +0.145 C 
BRANCH  11  12
ATOM     12  N   GLU A   1      44.234  30.628  27.615  0.00  0.00    -0.238 NA
ATOM     13  H   GLU A   1      43.715  30.899  26.755  0.00  0.00    +0.142 HD
ENDBRANCH  11  12
BRANCH  11  14
ATOM     14  CB  GLU A   1      43.150  32.602  28.638  0.00  0.00    +0.038 C 
BRANCH  14  15
ATOM     15  CG  GLU A   1      41.776  32.447  27.990  0.00  0.00    +0.116 C 
BRANCH  15  16
ATOM     16  CD  GLU A   1      41.800  32.557  26.469  0.00  0.00    +0.365 C 
ATOM     17  OE2 GLU A   1      40.792  33.023  25.901  0.00  0.00    -0.246 OA
ATOM     18  OE1 GLU A   1      42.809  32.179  25.835  0.00  0.00    -0.246 OA
ENDBRANCH  15  16
ENDBRANCH  14  15
ENDBRANCH  11  14
ENDBRANCH   7  11
ENDBRANCH   5   9
ENDBRANCH   1   5
BRANCH   3  19
ATOM     19  CA  LEU A   3      44.982  26.142  30.878  0.00  0.00    +0.149 C 
BRANCH  19  20
ATOM     20  C   LEU A   3      45.587  26.466  32.243  0.00  0.00    +0.241 C 
ATOM     21  N   GLU A   4      45.583  25.478  33.134  0.00  0.00    -0.298 N 
ATOM     22  H   GLU A   4      45.213  24.547  32.856  0.00  0.00    +0.150 HD
ATOM     23  O   LEU A   3      46.031  27.588  32.485  0.00  0.00    -0.273 OA
BRANCH  21  24
ATOM     24  CA  GLU A   4      46.084  25.667  34.490  0.00  0.00    +0.137 C 
BRANCH  24  25
ATOM     25  C   GLU A   4      47.599  25.587  34.538  0.00  0.00    +0.227 C 
ATOM     26  O   GLU A   4      48.185  24.543  34.246  0.00  0.00    -0.286 OA
ENDBRANCH  24  25
BRANCH  24  27
ATOM     27  CB  GLU A   4      45.487  24.639  35.451  0.00  0.00    +0.039 C 
BRANCH  27  28
ATOM     28  CG  GLU A   4      43.992  24.783  35.670  0.00  0.00    +0.116 C 
BRANCH  28  29
ATOM     29  CD  GLU A   4      43.534  24.024  36.889  0.00  0.00    +0.365 C 
ATOM     30  OE2 GLU A   4      43.126  24.684  37.865  0.00  0.00    -0.246 OA
ATOM     31  OE1 GLU A   4      43.599  22.776  36.877  0.00  0.00    -0.246 OA
ENDBRANCH  28  29
ENDBRANCH  27  28
ENDBRANCH  24  27
ENDBRANCH  21  24
ENDBRANCH  19  20
BRANCH  19  32
ATOM     32  CB  LEU A   3      46.077  25.902  29.832  0.00  0.00    +0.029 C 
BRANCH  32  33
ATOM     33  CG  LEU A   3      45.694  25.569  28.378  0.00  0.00    +0.002 C 
ATOM     34  CD2 LEU A   3      44.501  24.609  28.238  0.00  0.00    +0.000 C 
ATOM     35  CD1 LEU A   3      46.902  25.003  27.651  0.00  0.00    +0.000 C 
ENDBRANCH  32  33
ENDBRANCH  19  32
ENDBRANCH   3  19
TORSDOF 16
REMARK  Name = ../refined-set-2016/2qrm/2qrm_pocket.pdb
REMARK  270 active torsions:
REMARK  status: ('A' for Active; 'I' for Inactive)
REMARK    1  A    between atoms: _1  and  _3
REMARK    2  A    between atoms: _3  and  _4
REMARK    3  A    between atoms: _3  and  _6
REMARK    4  A    between atoms: _6  and  _7
REMARK    5  A    between atoms: _12  and  _13
REMARK    6  A    between atoms: _15  and  _17
REMARK    7  A    between atoms: _17  and  _18
REMARK    8  A    between atoms: _17  and  _20
REMARK    9  A    between atoms: _20  and  _21
REMARK   10  A    between atoms: _24  and  _26
REMARK   11  A    between atoms: _26  and  _27
REMARK   12  A    between atoms: _26  and  _29
REMARK   13  A    between atoms: _29  and  _30
REMARK   14  A    between atoms: _30  and  _31
REMARK   15  A    between atoms: _34  and  _36
REMARK   16  A    between atoms: _36  and  _37
REMARK   17  A    between atoms: _39  and  _41
REMARK   18  A    between atoms: _41  and  _42
REMARK   19  A    between atoms: _41  and  _44
REMARK   20  A    between atoms: _44  and  _45
REMARK   21  A    between atoms: _50  and  _52
REMARK   22  A    between atoms: _52  and  _53
REMARK   23  A    between atoms: _55  and  _57
REMARK   24  A    between atoms: _57  and  _58
REMARK   25  A    between atoms: _60  and  _62
REMARK   26  A    between atoms: _62  and  _63
REMARK   27  A    between atoms: _62  and  _65
REMARK   28  A    between atoms: _65  and  _66
REMARK   29  A    between atoms: _69  and  _71
REMARK   30  A    between atoms: _71  and  _72
REMARK   31  A    between atoms: _74  and  _76
REMARK   32  A    between atoms: _76  and  _77
REMARK   33  A    between atoms: _76  and  _79
REMARK   34  A    between atoms: _79  and  _80
REMARK   35  A    between atoms: _80  and  _81
REMARK   36  A    between atoms: _81  and  _82
REMARK   37  A    between atoms: _91  and  _93
REMARK   38  A    between atoms: _93  and  _94
REMARK   39  A    between atoms: _93  and  _96
REMARK   40  A    between atoms: _96  and  _97
REMARK   41  A    between atoms: _100  and  _102
REMARK   42  A    between atoms: _102  and  _103
REMARK   43  A    between atoms: _106  and  _108
REMARK   44  A    between atoms: _108  and  _109
REMARK   45  A    between atoms: _108  and  _111
REMARK   46  A    between atoms: _111  and  _112
REMARK   47  A    between atoms: _118  and  _120
REMARK   48  A    between atoms: _120  and  _121
REMARK   49  A    between atoms: _120  and  _123
REMARK   50  A    between atoms: _123  and  _124
REMARK   51  A    between atoms: _129  and  _130
REMARK   52  A    between atoms: _132  and  _134
REMARK   53  A    between atoms: _134  and  _135
REMARK   54  A    between atoms: _134  and  _137
REMARK   55  A    between atoms: _137  and  _138
REMARK   56  A    between atoms: _141  and  _143
REMARK   57  A    between atoms: _143  and  _144
REMARK   58  A    between atoms: _143  and  _146
REMARK   59  A    between atoms: _146  and  _147
REMARK   60  A    between atoms: _152  and  _153
REMARK   61  A    between atoms: _156  and  _157
REMARK   62  A    between atoms: _162  and  _164
REMARK   63  A    between atoms: _164  and  _165
REMARK   64  A    between atoms: _164  and  _167
REMARK   65  A    between atoms: _167  and  _168
REMARK   66  A    between atoms: _173  and  _175
REMARK   67  A    between atoms: _175  and  _176
REMARK   68  A    between atoms: _175  and  _178
REMARK   69  A    between atoms: _178  and  _179
REMARK   70  A    between atoms: _182  and  _184
REMARK   71  A    between atoms: _184  and  _185
REMARK   72  A    between atoms: _184  and  _187
REMARK   73  A    between atoms: _187  and  _188
REMARK   74  A    between atoms: _193  and  _195
REMARK   75  A    between atoms: _195  and  _196
REMARK   76  A    between atoms: _195  and  _198
REMARK   77  A    between atoms: _198  and  _199
REMARK   78  A    between atoms: _205  and  _207
REMARK   79  A    between atoms: _207  and  _208
REMARK   80  A    between atoms: _207  and  _210
REMARK   81  A    between atoms: _210  and  _211
REMARK   82  A    between atoms: _217  and  _219
REMARK   83  A    between atoms: _219  and  _220
REMARK   84  A    between atoms: _219  and  _222
REMARK   85  A    between atoms: _222  and  _223
REMARK   86  A    between atoms: _223  and  _224
REMARK   87  A    between atoms: _227  and  _229
REMARK   88  A    between atoms: _229  and  _230
REMARK   89  A    between atoms: _229  and  _232
REMARK   90  A    between atoms: _232  and  _233
REMARK   91  A    between atoms: _233  and  _234
REMARK   92  A    between atoms: _234  and  _235
REMARK   93  A    between atoms: _244  and  _246
REMARK   94  A    between atoms: _246  and  _247
REMARK   95  A    between atoms: _246  and  _249
REMARK   96  A    between atoms: _249  and  _250
REMARK   97  A    between atoms: _250  and  _251
REMARK   98  A    between atoms: _254  and  _256
REMARK   99  A    between atoms: _256  and  _257
REMARK  100  A    between atoms: _256  and  _259
REMARK  101  A    between atoms: _259  and  _260
REMARK  102  A    between atoms: _265  and  _267
REMARK  103  A    between atoms: _267  and  _268
REMARK  104  A    between atoms: _267  and  _270
REMARK  105  A    between atoms: _270  and  _271
REMARK  106  A    between atoms: _274  and  _276
REMARK  107  A    between atoms: _276  and  _277
REMARK  108  A    between atoms: _276  and  _279
REMARK  109  A    between atoms: _279  and  _280
REMARK  110  A    between atoms: _283  and  _285
REMARK  111  A    between atoms: _285  and  _286
REMARK  112  A    between atoms: _285  and  _288
REMARK  113  A    between atoms: _288  and  _289
REMARK  114  A    between atoms: _294  and  _296
REMARK  115  A    between atoms: _296  and  _297
REMARK  116  A    between atoms: _296  and  _299
REMARK  117  A    between atoms: _299  and  _300
REMARK  118  A    between atoms: _303  and  _305
REMARK  119  A    between atoms: _305  and  _306
REMARK  120  A    between atoms: _305  and  _308
REMARK  121  A    between atoms: _308  and  _309
REMARK  122  A    between atoms: _314  and  _316
REMARK  123  A    between atoms: _316  and  _317
REMARK  124  A    between atoms: _316  and  _319
REMARK  125  A    between atoms: _319  and  _320
REMARK  126  A    between atoms: _325  and  _327
REMARK  127  A    between atoms: _327  and  _328
REMARK  128  A    between atoms: _327  and  _330
REMARK  129  A    between atoms: _330  and  _331
REMARK  130  A    between atoms: _334  and  _336
REMARK  131  A    between atoms: _336  and  _337
REMARK  132  A    between atoms: _336  and  _339
REMARK  133  A    between atoms: _342  and  _344
REMARK  134  A    between atoms: _344  and  _345
REMARK  135  A    between atoms: _344  and  _347
REMARK  136  A    between atoms: _347  and  _348
REMARK  137  A    between atoms: _351  and  _353
REMARK  138  A    between atoms: _353  and  _354
REMARK  139  A    between atoms: _353  and  _356
REMARK  140  A    between atoms: _356  and  _357
REMARK  141  A    between atoms: _357  and  _358
REMARK  142  A    between atoms: _361  and  _363
REMARK  143  A    between atoms: _363  and  _364
REMARK  144  A    between atoms: _367  and  _369
REMARK  145  A    between atoms: _369  and  _370
REMARK  146  A    between atoms: _369  and  _372
REMARK  147  A    between atoms: _372  and  _373
REMARK  148  A    between atoms: _376  and  _378
REMARK  149  A    between atoms: _378  and  _379
REMARK  150  A    between atoms: _378  and  _381
REMARK  151  A    between atoms: _381  and  _382
REMARK  152  A    between atoms: _382  and  _383
REMARK  153  A    between atoms: _386  and  _388
REMARK  154  A    between atoms: _388  and  _389
REMARK  155  A    between atoms: _388  and  _391
REMARK  156  A    between atoms: _391  and  _392
REMARK  157  A    between atoms: _397  and  _399
REMARK  158  A    between atoms: _399  and  _400
REMARK  159  A    between atoms: _402  and  _404
REMARK  160  A    between atoms: _404  and  _405
REMARK  161  A    between atoms: _404  and  _407
REMARK  162  A    between atoms: _410  and  _412
REMARK  163  A    between atoms: _412  and  _413
REMARK  164  A    between atoms: _416  and  _418
REMARK  165  A    between atoms: _418  and  _419
REMARK  166  A    between atoms: _418  and  _421
REMARK  167  A    between atoms: _421  and  _422
REMARK  168  A    between atoms: _427  and  _429
REMARK  169  A    between atoms: _429  and  _430
REMARK  170  A    between atoms: _429  and  _432
REMARK  171  A    between atoms: _432  and  _433
REMARK  172  A    between atoms: _433  and  _434
REMARK  173  A    between atoms: _434  and  _435
REMARK  174  A    between atoms: _435  and  _436
REMARK  175  A    between atoms: _440  and  _442
REMARK  176  A    between atoms: _442  and  _443
REMARK  177  A    between atoms: _442  and  _445
REMARK  178  A    between atoms: _445  and  _446
REMARK  179  A    between atoms: _449  and  _451
REMARK  180  A    between atoms: _451  and  _452
REMARK  181  A    between atoms: _451  and  _454
REMARK  182  A    between atoms: _454  and  _455
REMARK  183  A    between atoms: _460  and  _462
REMARK  184  A    between atoms: _462  and  _463
REMARK  185  A    between atoms: _465  and  _467
REMARK  186  A    between atoms: _467  and  _468
REMARK  187  A    between atoms: _467  and  _470
REMARK  188  A    between atoms: _470  and  _471
REMARK  189  A    between atoms: _471  and  _472
REMARK  190  A    between atoms: _472  and  _473
REMARK  191  A    between atoms: _473  and  _474
REMARK  192  A    between atoms: _478  and  _480
REMARK  193  A    between atoms: _480  and  _481
REMARK  194  A    between atoms: _480  and  _483
REMARK  195  A    between atoms: _483  and  _484
REMARK  196  A    between atoms: _484  and  _485
REMARK  197  A    between atoms: _485  and  _486
REMARK  198  A    between atoms: _495  and  _497
REMARK  199  A    between atoms: _497  and  _498
REMARK  200  A    between atoms: _497  and  _500
REMARK  201  A    between atoms: _500  and  _501
REMARK  202  A    between atoms: _506  and  _507
REMARK  203  A    between atoms: _509  and  _511
REMARK  204  A    between atoms: _511  and  _512
REMARK  205  A    between atoms: _511  and  _514
REMARK  206  A    between atoms: _514  and  _515
REMARK  207  A    between atoms: _515  and  _516
REMARK  208  A    between atoms: _516  and  _517
REMARK  209  A    between atoms: _517  and  _518
REMARK  210  A    between atoms: _522  and  _524
REMARK  211  A    between atoms: _524  and  _525
REMARK  212  A    between atoms: _524  and  _527
REMARK  213  A    between atoms: _527  and  _528
REMARK  214  A    between atoms: _530  and  _532
REMARK  215  A    between atoms: _532  and  _533
REMARK  216  A    between atoms: _532  and  _535
REMARK  217  A    between atoms: _535  and  _536
REMARK  218  A    between atoms: _539  and  _541
REMARK  219  A    between atoms: _541  and  _542
REMARK  220  A    between atoms: _541  and  _544
REMARK  221  A    between atoms: _544  and  _545
REMARK  222  A    between atoms: _545  and  _546
REMARK  223  A    between atoms: _549  and  _551
REMARK  224  A    between atoms: _551  and  _552
REMARK  225  A    between atoms: _555  and  _557
REMARK  226  A    between atoms: _557  and  _558
REMARK  227  A    between atoms: _557  and  _560
REMARK  228  A    between atoms: _560  and  _561
REMARK  229  A    between atoms: _563  and  _565
REMARK  230  A    between atoms: _565  and  _566
REMARK  231  A    between atoms: _568  and  _570
REMARK  232  A    between atoms: _570  and  _571
REMARK  233  A    between atoms: _570  and  _573
REMARK  234  A    between atoms: _573  and  _574
REMARK  235  A    between atoms: _577  and  _579
REMARK  236  A    between atoms: _579  and  _580
REMARK  237  A    between atoms: _582  and  _584
REMARK  238  A    between atoms: _584  and  _585
REMARK  239  A    between atoms: _584  and  _587
REMARK  240  A    between atoms: _587  and  _588
REMARK  241  A    between atoms: _593  and  _595
REMARK  242  A    between atoms: _595  and  _596
REMARK  243  A    between atoms: _595  and  _598
REMARK  244  A    between atoms: _598  and  _599
REMARK  245  A    between atoms: _599  and  _600
REMARK  246  A    between atoms: _607  and  _608
REMARK  247  A    between atoms: _608  and  _624
REMARK  248  A    between atoms: _609  and  _611
REMARK  249  A    between atoms: _611  and  _612
REMARK  250  A    between atoms: _612  and  _613
REMARK  251  A    between atoms: _617  and  _619
REMARK  252  A    between atoms: _619  and  _620
REMARK  253  A    between atoms: _619  and  _627
REMARK  254  A    between atoms: _620  and  _621
REMARK  255  A    between atoms: _621  and  _622
REMARK  256  A    between atoms: _622  and  _623
REMARK  257  A    between atoms: _623  and  _624
REMARK  258  A    between atoms: _629  and  _631
REMARK  259  A    between atoms: _631  and  _632
REMARK  260  A    between atoms: _631  and  _634
REMARK  261  A    between atoms: _634  and  _635
REMARK  262  A    between atoms: _638  and  _640
REMARK  263  A    between atoms: _640  and  _641
REMARK  264  A    between atoms: _643  and  _645
REMARK  265  A    between atoms: _645  and  _646
REMARK  266  A    between atoms: _649  and  _651
REMARK  267  A    between atoms: _651  and  _652
REMARK  268  A    between atoms: _651  and  _654
REMARK  269  A    between atoms: _654  and  _655
REMARK  270  A    between atoms: _660  and  _661
REMARK                            x       y       z     vdW  Elec       q    Type
REMARK                         _______ _______ _______ _____ _____    ______ ____
ROOT
ATOM      1  C   GLY A   2      38.008  14.628  23.621  0.00  0.00    +0.243 C 
ATOM      2  O   GLY A   2      37.641  13.460  23.761  0.00  0.00    -0.273 OA
ATOM      3  N   VAL A   3      37.163  15.622  23.385  0.00  0.00    -0.297 N 
ATOM      4  H   VAL A   3      37.530  16.529  23.032  0.00  0.00    +0.150 HD
ENDROOT
BRANCH   1   5
ATOM      5  CA  GLY A   2      39.481  14.987  23.679  0.00  0.00    +0.176 C 
BRANCH   5   8
ATOM      6  C   ASN A   1      40.573  13.449  25.240  0.00  0.00    +0.239 C 
ATOM      7  O   ASN A   1      40.517  14.226  26.195  0.00  0.00    -0.274 OA
ATOM      8  N   GLY A   2      40.239  13.781  23.997  0.00  0.00    -0.296 N 
ATOM      9  H   GLY A   2      40.530  13.155  23.219  0.00  0.00    +0.150 HD
BRANCH   6  10
ATOM     10  CA  ASN A   1      41.058  12.017  25.416  0.00  0.00    +0.154 C 
BRANCH  10  11
ATOM     11  N   ASN A   1      42.071  11.827  26.448  0.00  0.00    -0.238 NA
ATOM     12  H   ASN A   1      41.896  12.171  27.414  0.00  0.00    +0.142 HD
ENDBRANCH  10  11
BRANCH  10  13
ATOM     13  CB  ASN A   1      39.862  11.057  25.604  0.00  0.00    +0.111 C 
BRANCH  13  14
ATOM     14  CG  ASN A   1      38.914  11.489  26.723  0.00  0.00    +0.221 C 
ATOM     15  OD1 ASN A   1      39.183  11.259  27.900  0.00  0.00    -0.275 OA
ATOM     16  ND2 ASN A   1      37.791  12.097  26.351  0.00  0.00    -0.329 N 
ATOM     17 HD21 ASN A   1      37.100  12.398  27.068  0.00  0.00    +0.145 HD
ATOM     18 HD22 ASN A   1      37.604  12.272  25.343  0.00  0.00    +0.145 HD
ENDBRANCH  13  14
ENDBRANCH  10  13
ENDBRANCH   6  10
ENDBRANCH   5   8
ENDBRANCH   1   5
BRANCH   3  19
ATOM     19  CA  VAL A   3      35.719  15.469  23.612  0.00  0.00    +0.149 C 
BRANCH  19  20
ATOM     20  C   VAL A   3      34.872  15.540  22.337  0.00  0.00    +0.241 C 
ATOM     21  O   VAL A   3      33.640  15.514  22.398  0.00  0.00    -0.273 OA
ATOM     22  N   ALA A   4      35.550  15.638  21.194  0.00  0.00    -0.298 N 
ATOM     23  H   ALA A   4      36.575  15.805  21.242  0.00  0.00    +0.150 HD
BRANCH  22  24
ATOM     24  CA  ALA A   4      34.925  15.522  19.870  0.00  0.00    +0.137 C 
ATOM     25  CB  ALA A   4      34.180  16.805  19.489  0.00  0.00    +0.030 C 
BRANCH  24  26
ATOM     26  C   ALA A   4      36.031  15.225  18.868  0.00  0.00    +0.227 C 
ATOM     27  O   ALA A   4      37.197  15.541  19.117  0.00  0.00    -0.286 OA
ENDBRANCH  24  26
ENDBRANCH  22  24
ENDBRANCH  19  20
BRANCH  19  28
ATOM     28  CB  VAL A   3      35.207  16.455  24.701  0.00  0.00    +0.027 C 
ATOM     29  CG2 VAL A   3      35.768  16.067  26.068  0.00  0.00    +0.002 C 
ATOM     30  CG1 VAL A   3      35.577  17.902  24.366  0.00  0.00    +0.002 C 
ENDBRANCH  19  28
ENDBRANCH   3  19
TORSDOF 11
REMARK  Name = ../refined-set-2016/2qrm/2qrm_pocket.pdb
REMARK  270 active torsions:
REMARK  status: ('A' for Active; 'I' for Inactive)
REMARK    1  A    between atoms: _1  and  _3
REMARK    2  A    between atoms: _3  and  _4
REMARK    3  A    between atoms: _3  and  _6
REMARK    4  A    between atoms: _6  and  _7
REMARK    5  A    between atoms: _12  and  _13
REMARK    6  A    between atoms: _15  and  _17
REMARK    7  A    between atoms: _17  and  _18
REMARK    8  A    between atoms: _17  and  _20
REMARK    9  A    between atoms: _20  and  _21
REMARK   10  A    between atoms: _24  and  _26
REMARK   11  A    between atoms: _26  and  _27
REMARK   12  A    between atoms: _26  and  _29
REMARK   13  A    between atoms: _29  and  _30
REMARK   14  A    between atoms: _30  and  _31
REMARK   15  A    between atoms: _34  and  _36
REMARK   16  A    between atoms: _36  and  _37
REMARK   17  A    between atoms: _39  and  _41
REMARK   18  A    between atoms: _41  and  _42
REMARK   19  A    between atoms: _41  and  _44
REMARK   20  A    between atoms: _44  and  _45
REMARK   21  A    between atoms: _50  and  _52
REMARK   22  A    between atoms: _52  and  _53
REMARK   23  A    between atoms: _55  and  _57
REMARK   24  A    between atoms: _57  and  _58
REMARK   25  A    between atoms: _60  and  _62
REMARK   26  A    between atoms: _62  and  _63
REMARK   27  A    between atoms: _62  and  _65
REMARK   28  A    between atoms: _65  and  _66
REMARK   29  A    between atoms: _69  and  _71
REMARK   30  A    between atoms: _71  and  _72
REMARK   31  A    between atoms: _74  and  _76
REMARK   32  A    between atoms: _76  and  _77
REMARK   33  A    between atoms: _76  and  _79
REMARK   34  A    between atoms: _79  and  _80
REMARK   35  A    between atoms: _80  and  _81
REMARK   36  A    between atoms: _81  and  _82
REMARK   37  A    between atoms: _91  and  _93
REMARK   38  A    between atoms: _93  and  _94
REMARK   39  A    between atoms: _93  and  _96
REMARK   40  A    between atoms: _96  and  _97
REMARK   41  A    between atoms: _100  and  _102
REMARK   42  A    between atoms: _102  and  _103
REMARK   43  A    between atoms: _106  and  _108
REMARK   44  A    between atoms: _108  and  _109
REMARK   45  A    between atoms: _108  and  _111
REMARK   46  A    between atoms: _111  and  _112
REMARK   47  A    between atoms: _118  and  _120
REMARK   48  A    between atoms: _120  and  _121
REMARK   49  A    between atoms: _120  and  _123
REMARK   50  A    between atoms: _123  and  _124
REMARK   51  A    between atoms: _129  and  _130
REMARK   52  A    between atoms: _132  and  _134
REMARK   53  A    between atoms: _134  and  _135
REMARK   54  A    between atoms: _134  and  _137
REMARK   55  A    between atoms: _137  and  _138
REMARK   56  A    between atoms: _141  and  _143
REMARK   57  A    between atoms: _143  and  _144
REMARK   58  A    between atoms: _143  and  _146
REMARK   59  A    between atoms: _146  and  _147
REMARK   60  A    between atoms: _152  and  _153
REMARK   61  A    between atoms: _156  and  _157
REMARK   62  A    between atoms: _162  and  _164
REMARK   63  A    between atoms: _164  and  _165
REMARK   64  A    between atoms: _164  and  _167
REMARK   65  A    between atoms: _167  and  _168
REMARK   66  A    between atoms: _173  and  _175
REMARK   67  A    between atoms: _175  and  _176
REMARK   68  A    between atoms: _175  and  _178
REMARK   69  A    between atoms: _178  and  _179
REMARK   70  A    between atoms: _182  and  _184
REMARK   71  A    between atoms: _184  and  _185
REMARK   72  A    between atoms: _184  and  _187
REMARK   73  A    between atoms: _187  and  _188
REMARK   74  A    between atoms: _193  and  _195
REMARK   75  A    between atoms: _195  and  _196
REMARK   76  A    between atoms: _195  and  _198
REMARK   77  A    between atoms: _198  and  _199
REMARK   78  A    between atoms: _205  and  _207
REMARK   79  A    between atoms: _207  and  _208
REMARK   80  A    between atoms: _207  and  _210
REMARK   81  A    between atoms: _210  and  _211
REMARK   82  A    between atoms: _217  and  _219
REMARK   83  A    between atoms: _219  and  _220
REMARK   84  A    between atoms: _219  and  _222
REMARK   85  A    between atoms: _222  and  _223
REMARK   86  A    between atoms: _223  and  _224
REMARK   87  A    between atoms: _227  and  _229
REMARK   88  A    between atoms: _229  and  _230
REMARK   89  A    between atoms: _229  and  _232
REMARK   90  A    between atoms: _232  and  _233
REMARK   91  A    between atoms: _233  and  _234
REMARK   92  A    between atoms: _234  and  _235
REMARK   93  A    between atoms: _244  and  _246
REMARK   94  A    between atoms: _246  and  _247
REMARK   95  A    between atoms: _246  and  _249
REMARK   96  A    between atoms: _249  and  _250
REMARK   97  A    between atoms: _250  and  _251
REMARK   98  A    between atoms: _254  and  _256
REMARK   99  A    between atoms: _256  and  _257
REMARK  100  A    between atoms: _256  and  _259
REMARK  101  A    between atoms: _259  and  _260
REMARK  102  A    between atoms: _265  and  _267
REMARK  103  A    between atoms: _267  and  _268
REMARK  104  A    between atoms: _267  and  _270
REMARK  105  A    between atoms: _270  and  _271
REMARK  106  A    between atoms: _274  and  _276
REMARK  107  A    between atoms: _276  and  _277
REMARK  108  A    between atoms: _276  and  _279
REMARK  109  A    between atoms: _279  and  _280
REMARK  110  A    between atoms: _283  and  _285
REMARK  111  A    between atoms: _285  and  _286
REMARK  112  A    between atoms: _285  and  _288
REMARK  113  A    between atoms: _288  and  _289
REMARK  114  A    between atoms: _294  and  _296
REMARK  115  A    between atoms: _296  and  _297
REMARK  116  A    between atoms: _296  and  _299
REMARK  117  A    between atoms: _299  and  _300
REMARK  118  A    between atoms: _303  and  _305
REMARK  119  A    between atoms: _305  and  _306
REMARK  120  A    between atoms: _305  and  _308
REMARK  121  A    between atoms: _308  and  _309
REMARK  122  A    between atoms: _314  and  _316
REMARK  123  A    between atoms: _316  and  _317
REMARK  124  A    between atoms: _316  and  _319
REMARK  125  A    between atoms: _319  and  _320
REMARK  126  A    between atoms: _325  and  _327
REMARK  127  A    between atoms: _327  and  _328
REMARK  128  A    between atoms: _327  and  _330
REMARK  129  A    between atoms: _330  and  _331
REMARK  130  A    between atoms: _334  and  _336
REMARK  131  A    between atoms: _336  and  _337
REMARK  132  A    between atoms: _336  and  _339
REMARK  133  A    between atoms: _342  and  _344
REMARK  134  A    between atoms: _344  and  _345
REMARK  135  A    between atoms: _344  and  _347
REMARK  136  A    between atoms: _347  and  _348
REMARK  137  A    between atoms: _351  and  _353
REMARK  138  A    between atoms: _353  and  _354
REMARK  139  A    between atoms: _353  and  _356
REMARK  140  A    between atoms: _356  and  _357
REMARK  141  A    between atoms: _357  and  _358
REMARK  142  A    between atoms: _361  and  _363
REMARK  143  A    between atoms: _363  and  _364
REMARK  144  A    between atoms: _367  and  _369
REMARK  145  A    between atoms: _369  and  _370
REMARK  146  A    between atoms: _369  and  _372
REMARK  147  A    between atoms: _372  and  _373
REMARK  148  A    between atoms: _376  and  _378
REMARK  149  A    between atoms: _378  and  _379
REMARK  150  A    between atoms: _378  and  _381
REMARK  151  A    between atoms: _381  and  _382
REMARK  152  A    between atoms: _382  and  _383
REMARK  153  A    between atoms: _386  and  _388
REMARK  154  A    between atoms: _388  and  _389
REMARK  155  A    between atoms: _388  and  _391
REMARK  156  A    between atoms: _391  and  _392
REMARK  157  A    between atoms: _397  and  _399
REMARK  158  A    between atoms: _399  and  _400
REMARK  159  A    between atoms: _402  and  _404
REMARK  160  A    between atoms: _404  and  _405
REMARK  161  A    between atoms: _404  and  _407
REMARK  162  A    between atoms: _410  and  _412
REMARK  163  A    between atoms: _412  and  _413
REMARK  164  A    between atoms: _416  and  _418
REMARK  165  A    between atoms: _418  and  _419
REMARK  166  A    between atoms: _418  and  _421
REMARK  167  A    between atoms: _421  and  _422
REMARK  168  A    between atoms: _427  and  _429
REMARK  169  A    between atoms: _429  and  _430
REMARK  170  A    between atoms: _429  and  _432
REMARK  171  A    between atoms: _432  and  _433
REMARK  172  A    between atoms: _433  and  _434
REMARK  173  A    between atoms: _434  and  _435
REMARK  174  A    between atoms: _435  and  _436
REMARK  175  A    between atoms: _440  and  _442
REMARK  176  A    between atoms: _442  and  _443
REMARK  177  A    between atoms: _442  and  _445
REMARK  178  A    between atoms: _445  and  _446
REMARK  179  A    between atoms: _449  and  _451
REMARK  180  A    between atoms: _451  and  _452
REMARK  181  A    between atoms: _451  and  _454
REMARK  182  A    between atoms: _454  and  _455
REMARK  183  A    between atoms: _460  and  _462
REMARK  184  A    between atoms: _462  and  _463
REMARK  185  A    between atoms: _465  and  _467
REMARK  186  A    between atoms: _467  and  _468
REMARK  187  A    between atoms: _467  and  _470
REMARK  188  A    between atoms: _470  and  _471
REMARK  189  A    between atoms: _471  and  _472
REMARK  190  A    between atoms: _472  and  _473
REMARK  191  A    between atoms: _473  and  _474
REMARK  192  A    between atoms: _478  and  _480
REMARK  193  A    between atoms: _480  and  _481
REMARK  194  A    between atoms: _480  and  _483
REMARK  195  A    between atoms: _483  and  _484
REMARK  196  A    between atoms: _484  and  _485
REMARK  197  A    between atoms: _485  and  _486
REMARK  198  A    between atoms: _495  and  _497
REMARK  199  A    between atoms: _497  and  _498
REMARK  200  A    between atoms: _497  and  _500
REMARK  201  A    between atoms: _500  and  _501
REMARK  202  A    between atoms: _506  and  _507
REMARK  203  A    between atoms: _509  and  _511
REMARK  204  A    between atoms: _511  and  _512
REMARK  205  A    between atoms: _511  and  _514
REMARK  206  A    between atoms: _514  and  _515
REMARK  207  A    between atoms: _515  and  _516
REMARK  208  A    between atoms: _516  and  _517
REMARK  209  A    between atoms: _517  and  _518
REMARK  210  A    between atoms: _522  and  _524
REMARK  211  A    between atoms: _524  and  _525
REMARK  212  A    between atoms: _524  and  _527
REMARK  213  A    between atoms: _527  and  _528
REMARK  214  A    between atoms: _530  and  _532
REMARK  215  A    between atoms: _532  and  _533
REMARK  216  A    between atoms: _532  and  _535
REMARK  217  A    between atoms: _535  and  _536
REMARK  218  A    between atoms: _539  and  _541
REMARK  219  A    between atoms: _541  and  _542
REMARK  220  A    between atoms: _541  and  _544
REMARK  221  A    between atoms: _544  and  _545
REMARK  222  A    between atoms: _545  and  _546
REMARK  223  A    between atoms: _549  and  _551
REMARK  224  A    between atoms: _551  and  _552
REMARK  225  A    between atoms: _555  and  _557
REMARK  226  A    between atoms: _557  and  _558
REMARK  227  A    between atoms: _557  and  _560
REMARK  228  A    between atoms: _560  and  _561
REMARK  229  A    between atoms: _563  and  _565
REMARK  230  A    between atoms: _565  and  _566
REMARK  231  A    between atoms: _568  and  _570
REMARK  232  A    between atoms: _570  and  _571
REMARK  233  A    between atoms: _570  and  _573
REMARK  234  A    between atoms: _573  and  _574
REMARK  235  A    between atoms: _577  and  _579
REMARK  236  A    between atoms: _579  and  _580
REMARK  237  A    between atoms: _582  and  _584
REMARK  238  A    between atoms: _584  and  _585
REMARK  239  A    between atoms: _584  and  _587
REMARK  240  A    between atoms: _587  and  _588
REMARK  241  A    between atoms: _593  and  _595
REMARK  242  A    between atoms: _595  and  _596
REMARK  243  A    between atoms: _595  and  _598
REMARK  244  A    between atoms: _598  and  _599
REMARK  245  A    between atoms: _599  and  _600
REMARK  246  A    between atoms: _607  and  _608
REMARK  247  A    between atoms: _608  and  _624
REMARK  248  A    between atoms: _609  and  _611
REMARK  249  A    between atoms: _611  and  _612
REMARK  250  A    between atoms: _612  and  _613
REMARK  251  A    between atoms: _617  and  _619
REMARK  252  A    between atoms: _619  and  _620
REMARK  253  A    between atoms: _619  and  _627
REMARK  254  A    between atoms: _620  and  _621
REMARK  255  A    between atoms: _621  and  _622
REMARK  256  A    between atoms: _622  and  _623
REMARK  257  A    between atoms: _623  and  _624
REMARK  258  A    between atoms: _629  and  _631
REMARK  259  A    between atoms: _631  and  _632
REMARK  260  A    between atoms: _631  and  _634
REMARK  261  A    between atoms: _634  and  _635
REMARK  262  A    between atoms: _638  and  _640
REMARK  263  A    between atoms: _640  and  _641
REMARK  264  A    between atoms: _643  and  _645
REMARK  265  A    between atoms: _645  and  _646
REMARK  266  A    between atoms: _649  and  _651
REMARK  267  A    between atoms: _651  and  _652
REMARK  268  A    between atoms: _651  and  _654
REMARK  269  A    between atoms: _654  and  _655
REMARK  270  A    between atoms: _660  and  _661
REMARK                            x       y       z     vdW  Elec       q    Type
REMARK                         _______ _______ _______ _____ _____    ______ ____
ROOT
ATOM      1  CB  HIS A   1      38.189  18.650  20.227  0.00  0.00    +0.072 C 
ENDROOT
BRANCH   1   2
ATOM      2  CG  HIS A   1      38.876  18.860  21.541  0.00  0.00    +0.082 A 
ATOM      3  CD2 HIS A   1      38.833  18.142  22.687  0.00  0.00    +0.115 A 
ATOM      4  NE2 HIS A   1      39.637  18.782  23.598  0.00  0.00    -0.221 NA
ATOM      5  CE1 HIS A   1      40.147  19.863  23.036  0.00  0.00    +0.199 A 
ATOM      6  ND1 HIS A   1      39.699  19.938  21.795  0.00  0.00    -0.227 NA
ENDBRANCH   1   2
BRANCH   1   7
ATOM      7  CA  HIS A   1      39.140  18.500  19.031  0.00  0.00    +0.139 C 
BRANCH   7   8
ATOM      8  N   HIS A   1      38.384  18.059  17.859  0.00  0.00    -0.239 NA
ATOM      9  H   HIS A   1      37.393  17.770  17.989  0.00  0.00    +0.142 HD
ENDBRANCH   7   8
BRANCH   7  10
ATOM     10  C   HIS A   1      40.278  17.528  19.342  0.00  0.00    +0.224 C 
ATOM     11  O   HIS A   1      41.424  17.947  19.516  0.00  0.00    -0.287 OA
ENDBRANCH   7  10
ENDBRANCH   1   7
TORSDOF 4
REMARK  Name = ../refined-set-2016/2qrm/2qrm_pocket.pdb
REMARK  270 active torsions:
REMARK  status: ('A' for Active; 'I' for Inactive)
REMARK    1  A    between atoms: _1  and  _3
REMARK    2  A    between atoms: _3  and  _4
REMARK    3  A    between atoms: _3  and  _6
REMARK    4  A    between atoms: _6  and  _7
REMARK    5  A    between atoms: _12  and  _13
REMARK    6  A    between atoms: _15  and  _17
REMARK    7  A    between atoms: _17  and  _18
REMARK    8  A    between atoms: _17  and  _20
REMARK    9  A    between atoms: _20  and  _21
REMARK   10  A    between atoms: _24  and  _26
REMARK   11  A    between atoms: _26  and  _27
REMARK   12  A    between atoms: _26  and  _29
REMARK   13  A    between atoms: _29  and  _30
REMARK   14  A    between atoms: _30  and  _31
REMARK   15  A    between atoms: _34  and  _36
REMARK   16  A    between atoms: _36  and  _37
REMARK   17  A    between atoms: _39  and  _41
REMARK   18  A    between atoms: _41  and  _42
REMARK   19  A    between atoms: _41  and  _44
REMARK   20  A    between atoms: _44  and  _45
REMARK   21  A    between atoms: _50  and  _52
REMARK   22  A    between atoms: _52  and  _53
REMARK   23  A    between atoms: _55  and  _57
REMARK   24  A    between atoms: _57  and  _58
REMARK   25  A    between atoms: _60  and  _62
REMARK   26  A    between atoms: _62  and  _63
REMARK   27  A    between atoms: _62  and  _65
REMARK   28  A    between atoms: _65  and  _66
REMARK   29  A    between atoms: _69  and  _71
REMARK   30  A    between atoms: _71  and  _72
REMARK   31  A    between atoms: _74  and  _76
REMARK   32  A    between atoms: _76  and  _77
REMARK   33  A    between atoms: _76  and  _79
REMARK   34  A    between atoms: _79  and  _80
REMARK   35  A    between atoms: _80  and  _81
REMARK   36  A    between atoms: _81  and  _82
REMARK   37  A    between atoms: _91  and  _93
REMARK   38  A    between atoms: _93  and  _94
REMARK   39  A    between atoms: _93  and  _96
REMARK   40  A    between atoms: _96  and  _97
REMARK   41  A    between atoms: _100  and  _102
REMARK   42  A    between atoms: _102  and  _103
REMARK   43  A    between atoms: _106  and  _108
REMARK   44  A    between atoms: _108  and  _109
REMARK   45  A    between atoms: _108  and  _111
REMARK   46  A    between atoms: _111  and  _112
REMARK   47  A    between atoms: _118  and  _120
REMARK   48  A    between atoms: _120  and  _121
REMARK   49  A    between atoms: _120  and  _123
REMARK   50  A    between atoms: _123  and  _124
REMARK   51  A    between atoms: _129  and  _130
REMARK   52  A    between atoms: _132  and  _134
REMARK   53  A    between atoms: _134  and  _135
REMARK   54  A    between atoms: _134  and  _137
REMARK   55  A    between atoms: _137  and  _138
REMARK   56  A    between atoms: _141  and  _143
REMARK   57  A    between atoms: _143  and  _144
REMARK   58  A    between atoms: _143  and  _146
REMARK   59  A    between atoms: _146  and  _147
REMARK   60  A    between atoms: _152  and  _153
REMARK   61  A    between atoms: _156  and  _157
REMARK   62  A    between atoms: _162  and  _164
REMARK   63  A    between atoms: _164  and  _165
REMARK   64  A    between atoms: _164  and  _167
REMARK   65  A    between atoms: _167  and  _168
REMARK   66  A    between atoms: _173  and  _175
REMARK   67  A    between atoms: _175  and  _176
REMARK   68  A    between atoms: _175  and  _178
REMARK   69  A    between atoms: _178  and  _179
REMARK   70  A    between atoms: _182  and  _184
REMARK   71  A    between atoms: _184  and  _185
REMARK   72  A    between atoms: _184  and  _187
REMARK   73  A    between atoms: _187  and  _188
REMARK   74  A    between atoms: _193  and  _195
REMARK   75  A    between atoms: _195  and  _196
REMARK   76  A    between atoms: _195  and  _198
REMARK   77  A    between atoms: _198  and  _199
REMARK   78  A    between atoms: _205  and  _207
REMARK   79  A    between atoms: _207  and  _208
REMARK   80  A    between atoms: _207  and  _210
REMARK   81  A    between atoms: _210  and  _211
REMARK   82  A    between atoms: _217  and  _219
REMARK   83  A    between atoms: _219  and  _220
REMARK   84  A    between atoms: _219  and  _222
REMARK   85  A    between atoms: _222  and  _223
REMARK   86  A    between atoms: _223  and  _224
REMARK   87  A    between atoms: _227  and  _229
REMARK   88  A    between atoms: _229  and  _230
REMARK   89  A    between atoms: _229  and  _232
REMARK   90  A    between atoms: _232  and  _233
REMARK   91  A    between atoms: _233  and  _234
REMARK   92  A    between atoms: _234  and  _235
REMARK   93  A    between atoms: _244  and  _246
REMARK   94  A    between atoms: _246  and  _247
REMARK   95  A    between atoms: _246  and  _249
REMARK   96  A    between atoms: _249  and  _250
REMARK   97  A    between atoms: _250  and  _251
REMARK   98  A    between atoms: _254  and  _256
REMARK   99  A    between atoms: _256  and  _257
REMARK  100  A    between atoms: _256  and  _259
REMARK  101  A    between atoms: _259  and  _260
REMARK  102  A    between atoms: _265  and  _267
REMARK  103  A    between atoms: _267  and  _268
REMARK  104  A    between atoms: _267  and  _270
REMARK  105  A    between atoms: _270  and  _271
REMARK  106  A    between atoms: _274  and  _276
REMARK  107  A    between atoms: _276  and  _277
REMARK  108  A    between atoms: _276  and  _279
REMARK  109  A    between atoms: _279  and  _280
REMARK  110  A    between atoms: _283  and  _285
REMARK  111  A    between atoms: _285  and  _286
REMARK  112  A    between atoms: _285  and  _288
REMARK  113  A    between atoms: _288  and  _289
REMARK  114  A    between atoms: _294  and  _296
REMARK  115  A    between atoms: _296  and  _297
REMARK  116  A    between atoms: _296  and  _299
REMARK  117  A    between atoms: _299  and  _300
REMARK  118  A    between atoms: _303  and  _305
REMARK  119  A    between atoms: _305  and  _306
REMARK  120  A    between atoms: _305  and  _308
REMARK  121  A    between atoms: _308  and  _309
REMARK  122  A    between atoms: _314  and  _316
REMARK  123  A    between atoms: _316  and  _317
REMARK  124  A    between atoms: _316  and  _319
REMARK  125  A    between atoms: _319  and  _320
REMARK  126  A    between atoms: _325  and  _327
REMARK  127  A    between atoms: _327  and  _328
REMARK  128  A    between atoms: _327  and  _330
REMARK  129  A    between atoms: _330  and  _331
REMARK  130  A    between atoms: _334  and  _336
REMARK  131  A    between atoms: _336  and  _337
REMARK  132  A    between atoms: _336  and  _339
REMARK  133  A    between atoms: _342  and  _344
REMARK  134  A    between atoms: _344  and  _345
REMARK  135  A    between atoms: _344  and  _347
REMARK  136  A    between atoms: _347  and  _348
REMARK  137  A    between atoms: _351  and  _353
REMARK  138  A    between atoms: _353  and  _354
REMARK  139  A    between atoms: _353  and  _356
REMARK  140  A    between atoms: _356  and  _357
REMARK  141  A    between atoms: _357  and  _358
REMARK  142  A    between atoms: _361  and  _363
REMARK  143  A    between atoms: _363  and  _364
REMARK  144  A    between atoms: _367  and  _369
REMARK  145  A    between atoms: _369  and  _370
REMARK  146  A    between atoms: _369  and  _372
REMARK  147  A    between atoms: _372  and  _373
REMARK  148  A    between atoms: _376  and  _378
REMARK  149  A    between atoms: _378  and  _379
REMARK  150  A    between atoms: _378  and  _381
REMARK  151  A    between atoms: _381  and  _382
REMARK  152  A    between atoms: _382  and  _383
REMARK  153  A    between atoms: _386  and  _388
REMARK  154  A    between atoms: _388  and  _389
REMARK  155  A    between atoms: _388  and  _391
REMARK  156  A    between atoms: _391  and  _392
REMARK  157  A    between atoms: _397  and  _399
REMARK  158  A    between atoms: _399  and  _400
REMARK  159  A    between atoms: _402  and  _404
REMARK  160  A    between atoms: _404  and  _405
REMARK  161  A    between atoms: _404  and  _407
REMARK  162  A    between atoms: _410  and  _412
REMARK  163  A    between atoms: _412  and  _413
REMARK  164  A    between atoms: _416  and  _418
REMARK  165  A    between atoms: _418  and  _419
REMARK  166  A    between atoms: _418  and  _421
REMARK  167  A    between atoms: _421  and  _422
REMARK  168  A    between atoms: _427  and  _429
REMARK  169  A    between atoms: _429  and  _430
REMARK  170  A    between atoms: _429  and  _432
REMARK  171  A    between atoms: _432  and  _433
REMARK  172  A    between atoms: _433  and  _434
REMARK  173  A    between atoms: _434  and  _435
REMARK  174  A    between atoms: _435  and  _436
REMARK  175  A    between atoms: _440  and  _442
REMARK  176  A    between atoms: _442  and  _443
REMARK  177  A    between atoms: _442  and  _445
REMARK  178  A    between atoms: _445  and  _446
REMARK  179  A    between atoms: _449  and  _451
REMARK  180  A    between atoms: _451  and  _452
REMARK  181  A    between atoms: _451  and  _454
REMARK  182  A    between atoms: _454  and  _455
REMARK  183  A    between atoms: _460  and  _462
REMARK  184  A    between atoms: _462  and  _463
REMARK  185  A    between atoms: _465  and  _467
REMARK  186  A    between atoms: _467  and  _468
REMARK  187  A    between atoms: _467  and  _470
REMARK  188  A    between atoms: _470  and  _471
REMARK  189  A    between atoms: _471  and  _472
REMARK  190  A    between atoms: _472  and  _473
REMARK  191  A    between atoms: _473  and  _474
REMARK  192  A    between atoms: _478  and  _480
REMARK  193  A    between atoms: _480  and  _481
REMARK  194  A    between atoms: _480  and  _483
REMARK  195  A    between atoms: _483  and  _484
REMARK  196  A    between atoms: _484  and  _485
REMARK  197  A    between atoms: _485  and  _486
REMARK  198  A    between atoms: _495  and  _497
REMARK  199  A    between atoms: _497  and  _498
REMARK  200  A    between atoms: _497  and  _500
REMARK  201  A    between atoms: _500  and  _501
REMARK  202  A    between atoms: _506  and  _507
REMARK  203  A    between atoms: _509  and  _511
REMARK  204  A    between atoms: _511  and  _512
REMARK  205  A    between atoms: _511  and  _514
REMARK  206  A    between atoms: _514  and  _515
REMARK  207  A    between atoms: _515  and  _516
REMARK  208  A    between atoms: _516  and  _517
REMARK  209  A    between atoms: _517  and  _518
REMARK  210  A    between atoms: _522  and  _524
REMARK  211  A    between atoms: _524  and  _525
REMARK  212  A    between atoms: _524  and  _527
REMARK  213  A    between atoms: _527  and  _528
REMARK  214  A    between atoms: _530  and  _532
REMARK  215  A    between atoms: _532  and  _533
REMARK  216  A    between atoms: _532  and  _535
REMARK  217  A    between atoms: _535  and  _536
REMARK  218  A    between atoms: _539  and  _541
REMARK  219  A    between atoms: _541  and  _542
REMARK  220  A    between atoms: _541  and  _544
REMARK  221  A    between atoms: _544  and  _545
REMARK  222  A    between atoms: _545  and  _546
REMARK  223  A    between atoms: _549  and  _551
REMARK  224  A    between atoms: _551  and  _552
REMARK  225  A    between atoms: _555  and  _557
REMARK  226  A    between atoms: _557  and  _558
REMARK  227  A    between atoms: _557  and  _560
REMARK  228  A    between atoms: _560  and  _561
REMARK  229  A    between atoms: _563  and  _565
REMARK  230  A    between atoms: _565  and  _566
REMARK  231  A    between atoms: _568  and  _570
REMARK  232  A    between atoms: _570  and  _571
REMARK  233  A    between atoms: _570  and  _573
REMARK  234  A    between atoms: _573  and  _574
REMARK  235  A    between atoms: _577  and  _579
REMARK  236  A    between atoms: _579  and  _580
REMARK  237  A    between atoms: _582  and  _584
REMARK  238  A    between atoms: _584  and  _585
REMARK  239  A    between atoms: _584  and  _587
REMARK  240  A    between atoms: _587  and  _588
REMARK  241  A    between atoms: _593  and  _595
REMARK  242  A    between atoms: _595  and  _596
REMARK  243  A    between atoms: _595  and  _598
REMARK  244  A    between atoms: _598  and  _599
REMARK  245  A    between atoms: _599  and  _600
REMARK  246  A    between atoms: _607  and  _608
REMARK  247  A    between atoms: _608  and  _624
REMARK  248  A    between atoms: _609  and  _611
REMARK  249  A    between atoms: _611  and  _612
REMARK  250  A    between atoms: _612  and  _613
REMARK  251  A    between atoms: _617  and  _619
REMARK  252  A    between atoms: _619  and  _620
REMARK  253  A    between atoms: _619  and  _627
REMARK  254  A    between atoms: _620  and  _621
REMARK  255  A    between atoms: _621  and  _622
REMARK  256  A    between atoms: _622  and  _623
REMARK  257  A    between atoms: _623  and  _624
REMARK  258  A    between atoms: _629  and  _631
REMARK  259  A    between atoms: _631  and  _632
REMARK  260  A    between atoms: _631  and  _634
REMARK  261  A    between atoms: _634  and  _635
REMARK  262  A    between atoms: _638  and  _640
REMARK  263  A    between atoms: _640  and  _641
REMARK  264  A    between atoms: _643  and  _645
REMARK  265  A    between atoms: _645  and  _646
REMARK  266  A    between atoms: _649  and  _651
REMARK  267  A    between atoms: _651  and  _652
REMARK  268  A    between atoms: _651  and  _654
REMARK  269  A    between atoms: _654  and  _655
REMARK  270  A    between atoms: _660  and  _661
REMARK                            x       y       z     vdW  Elec       q    Type
REMARK                         _______ _______ _______ _____ _____    ______ ____
ROOT
ATOM      1  CA  THR A   2      32.776  12.470  21.594  0.00  0.00    +0.176 C 
ENDROOT
BRANCH   1   4
ATOM      2  C   LYS A   1      34.439  11.421  23.018  0.00  0.00    +0.238 C 
ATOM      3  O   LYS A   1      34.379  12.342  23.838  0.00  0.00    -0.274 OA
ATOM      4  N   THR A   2      33.709  11.392  21.906  0.00  0.00    -0.295 N 
ATOM      5  H   THR A   2      33.805  10.590  21.250  0.00  0.00    +0.150 HD
BRANCH   2   6
ATOM      6  CA  LYS A   1      35.397  10.265  23.226  0.00  0.00    +0.145 C 
BRANCH   6   7
ATOM      7  N   LYS A   1      36.687  10.663  22.671  0.00  0.00    -0.238 NA
ATOM      8  H   LYS A   1      37.016  11.637  22.827  0.00  0.00    +0.142 HD
ENDBRANCH   6   7
BRANCH   6   9
ATOM      9  CB  LYS A   1      35.504   9.931  24.724  0.00  0.00    +0.026 C 
BRANCH   9  10
ATOM     10  CG  LYS A   1      36.421   8.767  25.056  0.00  0.00    -0.000 C 
BRANCH  10  11
ATOM     11  CD  LYS A   1      35.797   7.423  24.688  0.00  0.00    -0.024 C 
BRANCH  11  12
ATOM     12  CE  LYS A   1      36.830   6.304  24.733  0.00  0.00    -0.086 C 
BRANCH  12  13
ATOM     13  NZ  LYS A   1      37.709   6.294  23.514  0.00  0.00    +0.380 N 
ATOM     14  HZ1 LYS A   1      38.395   5.516  23.589  0.00  0.00    -0.089 HD
ATOM     15  HZ2 LYS A   1      38.216   7.200  23.446  0.00  0.00    -0.089 HD
ATOM     16  HZ3 LYS A   1      37.122   6.159  22.666  0.00  0.00    -0.089 HD
ENDBRANCH  12  13
ENDBRANCH  11  12
ENDBRANCH  10  11
ENDBRANCH   9  10
ENDBRANCH   6   9
ENDBRANCH   2   6
ENDBRANCH   1   4
BRANCH   1  17
ATOM     17  C   THR A   2      31.719  12.563  22.696  0.00  0.00    +0.243 C 
ATOM     18  N   ASN A   3      31.472  13.787  23.144  0.00  0.00    -0.297 N 
ATOM     19  H   ASN A   3      31.995  14.582  22.724  0.00  0.00    +0.150 HD
ATOM     20  O   THR A   2      31.174  11.546  23.135  0.00  0.00    -0.273 OA
BRANCH  18  21
ATOM     21  CA  ASN A   3      30.503  14.074  24.196  0.00  0.00    +0.158 C 
BRANCH  21  22
ATOM     22  C   ASN A   3      29.085  13.604  23.853  0.00  0.00    +0.241 C 
ATOM     23  N   GLY A   4      28.249  13.524  24.879  0.00  0.00    -0.296 N 
ATOM     24  H   GLY A   4      28.609  13.703  25.838  0.00  0.00    +0.150 HD
ATOM     25  O   ASN A   3      28.762  13.315  22.698  0.00  0.00    -0.273 OA
BRANCH  23  26
ATOM     26  CA  GLY A   4      26.846  13.194  24.704  0.00  0.00    +0.163 C 
BRANCH  26  27
ATOM     27  C   GLY A   4      26.009  13.860  25.774  0.00  0.00    +0.229 C 
ATOM     28  O   GLY A   4      26.542  14.527  26.663  0.00  0.00    -0.286 OA
ENDBRANCH  26  27
ENDBRANCH  23  26
ENDBRANCH  21  22
BRANCH  21  29
ATOM     29  CB  ASN A   3      30.488  15.579  24.500  0.00  0.00    +0.114 C 
BRANCH  29  30
ATOM     30  CG  ASN A   3      31.628  16.016  25.432  0.00  0.00    +0.222 C 
ATOM     31  ND2 ASN A   3      32.319  15.057  26.020  0.00  0.00    -0.329 N 
ATOM     32 HD21 ASN A   3      33.093  15.298  26.672  0.00  0.00    +0.145 HD
ATOM     33 HD22 ASN A   3      32.090  14.060  25.831  0.00  0.00    +0.145 HD
ATOM     34  OD1 ASN A   3      31.860  17.219  25.622  0.00  0.00    -0.275 OA
ENDBRANCH  29  30
ENDBRANCH  21  29
ENDBRANCH  18  21
ENDBRANCH   1  17
BRANCH   1  35
ATOM     35  CB  THR A   2      32.115  12.286  20.206  0.00  0.00    +0.137 C 
ATOM     36  CG2 THR A   2      31.158  13.435  19.897  0.00  0.00    +0.034 C 
BRANCH  35  37
ATOM     37  OG1 THR A   2      33.137  12.262  19.199  0.00  0.00    -0.382 OA
ATOM     38  HG1 THR A   2      32.719  12.144  18.309  0.00  0.00    +0.210 HD
ENDBRANCH  35  37
ENDBRANCH   1  35
TORSDOF 17
REMARK  Name = ../refined-set-2016/2qrm/2qrm_pocket.pdb
REMARK  270 active torsions:
REMARK  status: ('A' for Active; 'I' for Inactive)
REMARK    1  A    between atoms: _1  and  _3
REMARK    2  A    between atoms: _3  and  _4
REMARK    3  A    between atoms: _3  and  _6
REMARK    4  A    between atoms: _6  and  _7
REMARK    5  A    between atoms: _12  and  _13
REMARK    6  A    between atoms: _15  and  _17
REMARK    7  A    between atoms: _17  and  _18
REMARK    8  A    between atoms: _17  and  _20
REMARK    9  A    between atoms: _20  and  _21
REMARK   10  A    between atoms: _24  and  _26
REMARK   11  A    between atoms: _26  and  _27
REMARK   12  A    between atoms: _26  and  _29
REMARK   13  A    between atoms: _29  and  _30
REMARK   14  A    between atoms: _30  and  _31
REMARK   15  A    between atoms: _34  and  _36
REMARK   16  A    between atoms: _36  and  _37
REMARK   17  A    between atoms: _39  and  _41
REMARK   18  A    between atoms: _41  and  _42
REMARK   19  A    between atoms: _41  and  _44
REMARK   20  A    between atoms: _44  and  _45
REMARK   21  A    between atoms: _50  and  _52
REMARK   22  A    between atoms: _52  and  _53
REMARK   23  A    between atoms: _55  and  _57
REMARK   24  A    between atoms: _57  and  _58
REMARK   25  A    between atoms: _60  and  _62
REMARK   26  A    between atoms: _62  and  _63
REMARK   27  A    between atoms: _62  and  _65
REMARK   28  A    between atoms: _65  and  _66
REMARK   29  A    between atoms: _69  and  _71
REMARK   30  A    between atoms: _71  and  _72
REMARK   31  A    between atoms: _74  and  _76
REMARK   32  A    between atoms: _76  and  _77
REMARK   33  A    between atoms: _76  and  _79
REMARK   34  A    between atoms: _79  and  _80
REMARK   35  A    between atoms: _80  and  _81
REMARK   36  A    between atoms: _81  and  _82
REMARK   37  A    between atoms: _91  and  _93
REMARK   38  A    between atoms: _93  and  _94
REMARK   39  A    between atoms: _93  and  _96
REMARK   40  A    between atoms: _96  and  _97
REMARK   41  A    between atoms: _100  and  _102
REMARK   42  A    between atoms: _102  and  _103
REMARK   43  A    between atoms: _106  and  _108
REMARK   44  A    between atoms: _108  and  _109
REMARK   45  A    between atoms: _108  and  _111
REMARK   46  A    between atoms: _111  and  _112
REMARK   47  A    between atoms: _118  and  _120
REMARK   48  A    between atoms: _120  and  _121
REMARK   49  A    between atoms: _120  and  _123
REMARK   50  A    between atoms: _123  and  _124
REMARK   51  A    between atoms: _129  and  _130
REMARK   52  A    between atoms: _132  and  _134
REMARK   53  A    between atoms: _134  and  _135
REMARK   54  A    between atoms: _134  and  _137
REMARK   55  A    between atoms: _137  and  _138
REMARK   56  A    between atoms: _141  and  _143
REMARK   57  A    between atoms: _143  and  _144
REMARK   58  A    between atoms: _143  and  _146
REMARK   59  A    between atoms: _146  and  _147
REMARK   60  A    between atoms: _152  and  _153
REMARK   61  A    between atoms: _156  and  _157
REMARK   62  A    between atoms: _162  and  _164
REMARK   63  A    between atoms: _164  and  _165
REMARK   64  A    between atoms: _164  and  _167
REMARK   65  A    between atoms: _167  and  _168
REMARK   66  A    between atoms: _173  and  _175
REMARK   67  A    between atoms: _175  and  _176
REMARK   68  A    between atoms: _175  and  _178
REMARK   69  A    between atoms: _178  and  _179
REMARK   70  A    between atoms: _182  and  _184
REMARK   71  A    between atoms: _184  and  _185
REMARK   72  A    between atoms: _184  and  _187
REMARK   73  A    between atoms: _187  and  _188
REMARK   74  A    between atoms: _193  and  _195
REMARK   75  A    between atoms: _195  and  _196
REMARK   76  A    between atoms: _195  and  _198
REMARK   77  A    between atoms: _198  and  _199
REMARK   78  A    between atoms: _205  and  _207
REMARK   79  A    between atoms: _207  and  _208
REMARK   80  A    between atoms: _207  and  _210
REMARK   81  A    between atoms: _210  and  _211
REMARK   82  A    between atoms: _217  and  _219
REMARK   83  A    between atoms: _219  and  _220
REMARK   84  A    between atoms: _219  and  _222
REMARK   85  A    between atoms: _222  and  _223
REMARK   86  A    between atoms: _223  and  _224
REMARK   87  A    between atoms: _227  and  _229
REMARK   88  A    between atoms: _229  and  _230
REMARK   89  A    between atoms: _229  and  _232
REMARK   90  A    between atoms: _232  and  _233
REMARK   91  A    between atoms: _233  and  _234
REMARK   92  A    between atoms: _234  and  _235
REMARK   93  A    between atoms: _244  and  _246
REMARK   94  A    between atoms: _246  and  _247
REMARK   95  A    between atoms: _246  and  _249
REMARK   96  A    between atoms: _249  and  _250
REMARK   97  A    between atoms: _250  and  _251
REMARK   98  A    between atoms: _254  and  _256
REMARK   99  A    between atoms: _256  and  _257
REMARK  100  A    between atoms: _256  and  _259
REMARK  101  A    between atoms: _259  and  _260
REMARK  102  A    between atoms: _265  and  _267
REMARK  103  A    between atoms: _267  and  _268
REMARK  104  A    between atoms: _267  and  _270
REMARK  105  A    between atoms: _270  and  _271
REMARK  106  A    between atoms: _274  and  _276
REMARK  107  A    between atoms: _276  and  _277
REMARK  108  A    between atoms: _276  and  _279
REMARK  109  A    between atoms: _279  and  _280
REMARK  110  A    between atoms: _283  and  _285
REMARK  111  A    between atoms: _285  and  _286
REMARK  112  A    between atoms: _285  and  _288
REMARK  113  A    between atoms: _288  and  _289
REMARK  114  A    between atoms: _294  and  _296
REMARK  115  A    between atoms: _296  and  _297
REMARK  116  A    between atoms: _296  and  _299
REMARK  117  A    between atoms: _299  and  _300
REMARK  118  A    between atoms: _303  and  _305
REMARK  119  A    between atoms: _305  and  _306
REMARK  120  A    between atoms: _305  and  _308
REMARK  121  A    between atoms: _308  and  _309
REMARK  122  A    between atoms: _314  and  _316
REMARK  123  A    between atoms: _316  and  _317
REMARK  124  A    between atoms: _316  and  _319
REMARK  125  A    between atoms: _319  and  _320
REMARK  126  A    between atoms: _325  and  _327
REMARK  127  A    between atoms: _327  and  _328
REMARK  128  A    between atoms: _327  and  _330
REMARK  129  A    between atoms: _330  and  _331
REMARK  130  A    between atoms: _334  and  _336
REMARK  131  A    between atoms: _336  and  _337
REMARK  132  A    between atoms: _336  and  _339
REMARK  133  A    between atoms: _342  and  _344
REMARK  134  A    between atoms: _344  and  _345
REMARK  135  A    between atoms: _344  and  _347
REMARK  136  A    between atoms: _347  and  _348
REMARK  137  A    between atoms: _351  and  _353
REMARK  138  A    between atoms: _353  and  _354
REMARK  139  A    between atoms: _353  and  _356
REMARK  140  A    between atoms: _356  and  _357
REMARK  141  A    between atoms: _357  and  _358
REMARK  142  A    between atoms: _361  and  _363
REMARK  143  A    between atoms: _363  and  _364
REMARK  144  A    between atoms: _367  and  _369
REMARK  145  A    between atoms: _369  and  _370
REMARK  146  A    between atoms: _369  and  _372
REMARK  147  A    between atoms: _372  and  _373
REMARK  148  A    between atoms: _376  and  _378
REMARK  149  A    between atoms: _378  and  _379
REMARK  150  A    between atoms: _378  and  _381
REMARK  151  A    between atoms: _381  and  _382
REMARK  152  A    between atoms: _382  and  _383
REMARK  153  A    between atoms: _386  and  _388
REMARK  154  A    between atoms: _388  and  _389
REMARK  155  A    between atoms: _388  and  _391
REMARK  156  A    between atoms: _391  and  _392
REMARK  157  A    between atoms: _397  and  _399
REMARK  158  A    between atoms: _399  and  _400
REMARK  159  A    between atoms: _402  and  _404
REMARK  160  A    between atoms: _404  and  _405
REMARK  161  A    between atoms: _404  and  _407
REMARK  162  A    between atoms: _410  and  _412
REMARK  163  A    between atoms: _412  and  _413
REMARK  164  A    between atoms: _416  and  _418
REMARK  165  A    between atoms: _418  and  _419
REMARK  166  A    between atoms: _418  and  _421
REMARK  167  A    between atoms: _421  and  _422
REMARK  168  A    between atoms: _427  and  _429
REMARK  169  A    between atoms: _429  and  _430
REMARK  170  A    between atoms: _429  and  _432
REMARK  171  A    between atoms: _432  and  _433
REMARK  172  A    between atoms: _433  and  _434
REMARK  173  A    between atoms: _434  and  _435
REMARK  174  A    between atoms: _435  and  _436
REMARK  175  A    between atoms: _440  and  _442
REMARK  176  A    between atoms: _442  and  _443
REMARK  177  A    between atoms: _442  and  _445
REMARK  178  A    between atoms: _445  and  _446
REMARK  179  A    between atoms: _449  and  _451
REMARK  180  A    between atoms: _451  and  _452
REMARK  181  A    between atoms: _451  and  _454
REMARK  182  A    between atoms: _454  and  _455
REMARK  183  A    between atoms: _460  and  _462
REMARK  184  A    between atoms: _462  and  _463
REMARK  185  A    between atoms: _465  and  _467
REMARK  186  A    between atoms: _467  and  _468
REMARK  187  A    between atoms: _467  and  _470
REMARK  188  A    between atoms: _470  and  _471
REMARK  189  A    between atoms: _471  and  _472
REMARK  190  A    between atoms: _472  and  _473
REMARK  191  A    between atoms: _473  and  _474
REMARK  192  A    between atoms: _478  and  _480
REMARK  193  A    between atoms: _480  and  _481
REMARK  194  A    between atoms: _480  and  _483
REMARK  195  A    between atoms: _483  and  _484
REMARK  196  A    between atoms: _484  and  _485
REMARK  197  A    between atoms: _485  and  _486
REMARK  198  A    between atoms: _495  and  _497
REMARK  199  A    between atoms: _497  and  _498
REMARK  200  A    between atoms: _497  and  _500
REMARK  201  A    between atoms: _500  and  _501
REMARK  202  A    between atoms: _506  and  _507
REMARK  203  A    between atoms: _509  and  _511
REMARK  204  A    between atoms: _511  and  _512
REMARK  205  A    between atoms: _511  and  _514
REMARK  206  A    between atoms: _514  and  _515
REMARK  207  A    between atoms: _515  and  _516
REMARK  208  A    between atoms: _516  and  _517
REMARK  209  A    between atoms: _517  and  _518
REMARK  210  A    between atoms: _522  and  _524
REMARK  211  A    between atoms: _524  and  _525
REMARK  212  A    between atoms: _524  and  _527
REMARK  213  A    between atoms: _527  and  _528
REMARK  214  A    between atoms: _530  and  _532
REMARK  215  A    between atoms: _532  and  _533
REMARK  216  A    between atoms: _532  and  _535
REMARK  217  A    between atoms: _535  and  _536
REMARK  218  A    between atoms: _539  and  _541
REMARK  219  A    between atoms: _541  and  _542
REMARK  220  A    between atoms: _541  and  _544
REMARK  221  A    between atoms: _544  and  _545
REMARK  222  A    between atoms: _545  and  _546
REMARK  223  A    between atoms: _549  and  _551
REMARK  224  A    between atoms: _551  and  _552
REMARK  225  A    between atoms: _555  and  _557
REMARK  226  A    between atoms: _557  and  _558
REMARK  227  A    between atoms: _557  and  _560
REMARK  228  A    between atoms: _560  and  _561
REMARK  229  A    between atoms: _563  and  _565
REMARK  230  A    between atoms: _565  and  _566
REMARK  231  A    between atoms: _568  and  _570
REMARK  232  A    between atoms: _570  and  _571
REMARK  233  A    between atoms: _570  and  _573
REMARK  234  A    between atoms: _573  and  _574
REMARK  235  A    between atoms: _577  and  _579
REMARK  236  A    between atoms: _579  and  _580
REMARK  237  A    between atoms: _582  and  _584
REMARK  238  A    between atoms: _584  and  _585
REMARK  239  A    between atoms: _584  and  _587
REMARK  240  A    between atoms: _587  and  _588
REMARK  241  A    between atoms: _593  and  _595
REMARK  242  A    between atoms: _595  and  _596
REMARK  243  A    between atoms: _595  and  _598
REMARK  244  A    between atoms: _598  and  _599
REMARK  245  A    between atoms: _599  and  _600
REMARK  246  A    between atoms: _607  and  _608
REMARK  247  A    between atoms: _608  and  _624
REMARK  248  A    between atoms: _609  and  _611
REMARK  249  A    between atoms: _611  and  _612
REMARK  250  A    between atoms: _612  and  _613
REMARK  251  A    between atoms: _617  and  _619
REMARK  252  A    between atoms: _619  and  _620
REMARK  253  A    between atoms: _619  and  _627
REMARK  254  A    between atoms: _620  and  _621
REMARK  255  A    between atoms: _621  and  _622
REMARK  256  A    between atoms: _622  and  _623
REMARK  257  A    between atoms: _623  and  _624
REMARK  258  A    between atoms: _629  and  _631
REMARK  259  A    between atoms: _631  and  _632
REMARK  260  A    between atoms: _631  and  _634
REMARK  261  A    between atoms: _634  and  _635
REMARK  262  A    between atoms: _638  and  _640
REMARK  263  A    between atoms: _640  and  _641
REMARK  264  A    between atoms: _643  and  _645
REMARK  265  A    between atoms: _645  and  _646
REMARK  266  A    between atoms: _649  and  _651
REMARK  267  A    between atoms: _651  and  _652
REMARK  268  A    between atoms: _651  and  _654
REMARK  269  A    between atoms: _654  and  _655
REMARK  270  A    between atoms: _660  and  _661
REMARK                            x       y       z     vdW  Elec       q    Type
REMARK                         _______ _______ _______ _____ _____    ______ ____
ROOT
ATOM      1  C   LYS A   1      26.042  30.478  27.205  0.00  0.00    +0.238 C 
ATOM      2  N   ARG A   2      27.124  30.158  27.906  0.00  0.00    -0.298 N 
ATOM      3  H   ARG A   2      27.441  29.168  27.947  0.00  0.00    +0.150 HD
ATOM      4  O   LYS A   1      25.610  31.628  27.158  0.00  0.00    -0.274 OA
ENDROOT
BRANCH   1   5
ATOM      5  CA  LYS A   1      25.336  29.360  26.438  0.00  0.00    +0.145 C 
BRANCH   5   6
ATOM      6  N   LYS A   1      24.015  29.879  26.062  0.00  0.00    -0.238 NA
ATOM      7  H   LYS A   1      23.740  30.812  26.431  0.00  0.00    +0.142 HD
ENDBRANCH   5   6
BRANCH   5   8
ATOM      8  CB  LYS A   1      26.162  28.954  25.206  0.00  0.00    +0.026 C 
BRANCH   8   9
ATOM      9  CG  LYS A   1      26.241  30.017  24.091  0.00  0.00    -0.000 C 
BRANCH   9  10
ATOM     10  CD  LYS A   1      26.885  29.462  22.820  0.00  0.00    -0.024 C 
BRANCH  10  11
ATOM     11  CE  LYS A   1      25.969  28.447  22.126  0.00  0.00    -0.086 C 
BRANCH  11  12
ATOM     12  NZ  LYS A   1      26.685  27.160  21.888  0.00  0.00    +0.380 N 
ATOM     13  HZ1 LYS A   1      26.995  26.764  22.798  0.00  0.00    -0.089 HD
ATOM     14  HZ2 LYS A   1      26.044  26.490  21.417  0.00  0.00    -0.089 HD
ATOM     15  HZ3 LYS A   1      27.513  27.332  21.283  0.00  0.00    -0.089 HD
ENDBRANCH  11  12
ENDBRANCH  10  11
ENDBRANCH   9  10
ENDBRANCH   8   9
ENDBRANCH   5   8
ENDBRANCH   1   5
BRANCH   2  16
ATOM     16  CA  ARG A   2      27.872  31.196  28.622  0.00  0.00    +0.137 C 
BRANCH  16  17
ATOM     17  C   ARG A   2      28.354  32.285  27.653  0.00  0.00    +0.227 C 
ATOM     18  O   ARG A   2      28.660  31.998  26.495  0.00  0.00    -0.286 OA
ENDBRANCH  16  17
BRANCH  16  19
ATOM     19  CB  ARG A   2      29.047  30.583  29.392  0.00  0.00    +0.031 C 
BRANCH  19  20
ATOM     20  CG  ARG A   2      28.623  29.731  30.583  0.00  0.00    +0.045 C 
BRANCH  20  21
ATOM     21  CD  ARG A   2      28.014  30.578  31.709  0.00  0.00    +0.174 C 
BRANCH  21  22
ATOM     22  NE  ARG A   2      28.973  31.545  32.250  0.00  0.00    -0.265 N 
ATOM     23  CZ  ARG A   2      29.675  31.372  33.368  0.00  0.00    +0.342 C 
ATOM     24  NH2 ARG A   2      29.535  30.270  34.096  0.00  0.00    -0.292 N 
ATOM     25 HH21 ARG A   2      30.090  30.148  34.967  0.00  0.00    +0.255 HD
ATOM     26 HH22 ARG A   2      28.870  29.529  33.795  0.00  0.00    +0.255 HD
ATOM     27  NH1 ARG A   2      30.517  32.316  33.766  0.00  0.00    -0.292 N 
ATOM     28 HH11 ARG A   2      31.068  32.187  34.638  0.00  0.00    +0.255 HD
ATOM     29 HH12 ARG A   2      30.626  33.185  33.206  0.00  0.00    +0.255 HD
ATOM     30  HE  ARG A   2      29.115  32.430  31.723  0.00  0.00    +0.259 HD
ENDBRANCH  21  22
ENDBRANCH  20  21
ENDBRANCH  19  20
ENDBRANCH  16  19
ENDBRANCH   2  16
TORSDOF 13
REMARK  Name = ../refined-set-2016/2qrm/2qrm_pocket.pdb
REMARK  270 active torsions:
REMARK  status: ('A' for Active; 'I' for Inactive)
REMARK    1  A    between atoms: _1  and  _3
REMARK    2  A    between atoms: _3  and  _4
REMARK    3  A    between atoms: _3  and  _6
REMARK    4  A    between atoms: _6  and  _7
REMARK    5  A    between atoms: _12  and  _13
REMARK    6  A    between atoms: _15  and  _17
REMARK    7  A    between atoms: _17  and  _18
REMARK    8  A    between atoms: _17  and  _20
REMARK    9  A    between atoms: _20  and  _21
REMARK   10  A    between atoms: _24  and  _26
REMARK   11  A    between atoms: _26  and  _27
REMARK   12  A    between atoms: _26  and  _29
REMARK   13  A    between atoms: _29  and  _30
REMARK   14  A    between atoms: _30  and  _31
REMARK   15  A    between atoms: _34  and  _36
REMARK   16  A    between atoms: _36  and  _37
REMARK   17  A    between atoms: _39  and  _41
REMARK   18  A    between atoms: _41  and  _42
REMARK   19  A    between atoms: _41  and  _44
REMARK   20  A    between atoms: _44  and  _45
REMARK   21  A    between atoms: _50  and  _52
REMARK   22  A    between atoms: _52  and  _53
REMARK   23  A    between atoms: _55  and  _57
REMARK   24  A    between atoms: _57  and  _58
REMARK   25  A    between atoms: _60  and  _62
REMARK   26  A    between atoms: _62  and  _63
REMARK   27  A    between atoms: _62  and  _65
REMARK   28  A    between atoms: _65  and  _66
REMARK   29  A    between atoms: _69  and  _71
REMARK   30  A    between atoms: _71  and  _72
REMARK   31  A    between atoms: _74  and  _76
REMARK   32  A    between atoms: _76  and  _77
REMARK   33  A    between atoms: _76  and  _79
REMARK   34  A    between atoms: _79  and  _80
REMARK   35  A    between atoms: _80  and  _81
REMARK   36  A    between atoms: _81  and  _82
REMARK   37  A    between atoms: _91  and  _93
REMARK   38  A    between atoms: _93  and  _94
REMARK   39  A    between atoms: _93  and  _96
REMARK   40  A    between atoms: _96  and  _97
REMARK   41  A    between atoms: _100  and  _102
REMARK   42  A    between atoms: _102  and  _103
REMARK   43  A    between atoms: _106  and  _108
REMARK   44  A    between atoms: _108  and  _109
REMARK   45  A    between atoms: _108  and  _111
REMARK   46  A    between atoms: _111  and  _112
REMARK   47  A    between atoms: _118  and  _120
REMARK   48  A    between atoms: _120  and  _121
REMARK   49  A    between atoms: _120  and  _123
REMARK   50  A    between atoms: _123  and  _124
REMARK   51  A    between atoms: _129  and  _130
REMARK   52  A    between atoms: _132  and  _134
REMARK   53  A    between atoms: _134  and  _135
REMARK   54  A    between atoms: _134  and  _137
REMARK   55  A    between atoms: _137  and  _138
REMARK   56  A    between atoms: _141  and  _143
REMARK   57  A    between atoms: _143  and  _144
REMARK   58  A    between atoms: _143  and  _146
REMARK   59  A    between atoms: _146  and  _147
REMARK   60  A    between atoms: _152  and  _153
REMARK   61  A    between atoms: _156  and  _157
REMARK   62  A    between atoms: _162  and  _164
REMARK   63  A    between atoms: _164  and  _165
REMARK   64  A    between atoms: _164  and  _167
REMARK   65  A    between atoms: _167  and  _168
REMARK   66  A    between atoms: _173  and  _175
REMARK   67  A    between atoms: _175  and  _176
REMARK   68  A    between atoms: _175  and  _178
REMARK   69  A    between atoms: _178  and  _179
REMARK   70  A    between atoms: _182  and  _184
REMARK   71  A    between atoms: _184  and  _185
REMARK   72  A    between atoms: _184  and  _187
REMARK   73  A    between atoms: _187  and  _188
REMARK   74  A    between atoms: _193  and  _195
REMARK   75  A    between atoms: _195  and  _196
REMARK   76  A    between atoms: _195  and  _198
REMARK   77  A    between atoms: _198  and  _199
REMARK   78  A    between atoms: _205  and  _207
REMARK   79  A    between atoms: _207  and  _208
REMARK   80  A    between atoms: _207  and  _210
REMARK   81  A    between atoms: _210  and  _211
REMARK   82  A    between atoms: _217  and  _219
REMARK   83  A    between atoms: _219  and  _220
REMARK   84  A    between atoms: _219  and  _222
REMARK   85  A    between atoms: _222  and  _223
REMARK   86  A    between atoms: _223  and  _224
REMARK   87  A    between atoms: _227  and  _229
REMARK   88  A    between atoms: _229  and  _230
REMARK   89  A    between atoms: _229  and  _232
REMARK   90  A    between atoms: _232  and  _233
REMARK   91  A    between atoms: _233  and  _234
REMARK   92  A    between atoms: _234  and  _235
REMARK   93  A    between atoms: _244  and  _246
REMARK   94  A    between atoms: _246  and  _247
REMARK   95  A    between atoms: _246  and  _249
REMARK   96  A    between atoms: _249  and  _250
REMARK   97  A    between atoms: _250  and  _251
REMARK   98  A    between atoms: _254  and  _256
REMARK   99  A    between atoms: _256  and  _257
REMARK  100  A    between atoms: _256  and  _259
REMARK  101  A    between atoms: _259  and  _260
REMARK  102  A    between atoms: _265  and  _267
REMARK  103  A    between atoms: _267  and  _268
REMARK  104  A    between atoms: _267  and  _270
REMARK  105  A    between atoms: _270  and  _271
REMARK  106  A    between atoms: _274  and  _276
REMARK  107  A    between atoms: _276  and  _277
REMARK  108  A    between atoms: _276  and  _279
REMARK  109  A    between atoms: _279  and  _280
REMARK  110  A    between atoms: _283  and  _285
REMARK  111  A    between atoms: _285  and  _286
REMARK  112  A    between atoms: _285  and  _288
REMARK  113  A    between atoms: _288  and  _289
REMARK  114  A    between atoms: _294  and  _296
REMARK  115  A    between atoms: _296  and  _297
REMARK  116  A    between atoms: _296  and  _299
REMARK  117  A    between atoms: _299  and  _300
REMARK  118  A    between atoms: _303  and  _305
REMARK  119  A    between atoms: _305  and  _306
REMARK  120  A    between atoms: _305  and  _308
REMARK  121  A    between atoms: _308  and  _309
REMARK  122  A    between atoms: _314  and  _316
REMARK  123  A    between atoms: _316  and  _317
REMARK  124  A    between atoms: _316  and  _319
REMARK  125  A    between atoms: _319  and  _320
REMARK  126  A    between atoms: _325  and  _327
REMARK  127  A    between atoms: _327  and  _328
REMARK  128  A    between atoms: _327  and  _330
REMARK  129  A    between atoms: _330  and  _331
REMARK  130  A    between atoms: _334  and  _336
REMARK  131  A    between atoms: _336  and  _337
REMARK  132  A    between atoms: _336  and  _339
REMARK  133  A    between atoms: _342  and  _344
REMARK  134  A    between atoms: _344  and  _345
REMARK  135  A    between atoms: _344  and  _347
REMARK  136  A    between atoms: _347  and  _348
REMARK  137  A    between atoms: _351  and  _353
REMARK  138  A    between atoms: _353  and  _354
REMARK  139  A    between atoms: _353  and  _356
REMARK  140  A    between atoms: _356  and  _357
REMARK  141  A    between atoms: _357  and  _358
REMARK  142  A    between atoms: _361  and  _363
REMARK  143  A    between atoms: _363  and  _364
REMARK  144  A    between atoms: _367  and  _369
REMARK  145  A    between atoms: _369  and  _370
REMARK  146  A    between atoms: _369  and  _372
REMARK  147  A    between atoms: _372  and  _373
REMARK  148  A    between atoms: _376  and  _378
REMARK  149  A    between atoms: _378  and  _379
REMARK  150  A    between atoms: _378  and  _381
REMARK  151  A    between atoms: _381  and  _382
REMARK  152  A    between atoms: _382  and  _383
REMARK  153  A    between atoms: _386  and  _388
REMARK  154  A    between atoms: _388  and  _389
REMARK  155  A    between atoms: _388  and  _391
REMARK  156  A    between atoms: _391  and  _392
REMARK  157  A    between atoms: _397  and  _399
REMARK  158  A    between atoms: _399  and  _400
REMARK  159  A    between atoms: _402  and  _404
REMARK  160  A    between atoms: _404  and  _405
REMARK  161  A    between atoms: _404  and  _407
REMARK  162  A    between atoms: _410  and  _412
REMARK  163  A    between atoms: _412  and  _413
REMARK  164  A    between atoms: _416  and  _418
REMARK  165  A    between atoms: _418  and  _419
REMARK  166  A    between atoms: _418  and  _421
REMARK  167  A    between atoms: _421  and  _422
REMARK  168  A    between atoms: _427  and  _429
REMARK  169  A    between atoms: _429  and  _430
REMARK  170  A    between atoms: _429  and  _432
REMARK  171  A    between atoms: _432  and  _433
REMARK  172  A    between atoms: _433  and  _434
REMARK  173  A    between atoms: _434  and  _435
REMARK  174  A    between atoms: _435  and  _436
REMARK  175  A    between atoms: _440  and  _442
REMARK  176  A    between atoms: _442  and  _443
REMARK  177  A    between atoms: _442  and  _445
REMARK  178  A    between atoms: _445  and  _446
REMARK  179  A    between atoms: _449  and  _451
REMARK  180  A    between atoms: _451  and  _452
REMARK  181  A    between atoms: _451  and  _454
REMARK  182  A    between atoms: _454  and  _455
REMARK  183  A    between atoms: _460  and  _462
REMARK  184  A    between atoms: _462  and  _463
REMARK  185  A    between atoms: _465  and  _467
REMARK  186  A    between atoms: _467  and  _468
REMARK  187  A    between atoms: _467  and  _470
REMARK  188  A    between atoms: _470  and  _471
REMARK  189  A    between atoms: _471  and  _472
REMARK  190  A    between atoms: _472  and  _473
REMARK  191  A    between atoms: _473  and  _474
REMARK  192  A    between atoms: _478  and  _480
REMARK  193  A    between atoms: _480  and  _481
REMARK  194  A    between atoms: _480  and  _483
REMARK  195  A    between atoms: _483  and  _484
REMARK  196  A    between atoms: _484  and  _485
REMARK  197  A    between atoms: _485  and  _486
REMARK  198  A    between atoms: _495  and  _497
REMARK  199  A    between atoms: _497  and  _498
REMARK  200  A    between atoms: _497  and  _500
REMARK  201  A    between atoms: _500  and  _501
REMARK  202  A    between atoms: _506  and  _507
REMARK  203  A    between atoms: _509  and  _511
REMARK  204  A    between atoms: _511  and  _512
REMARK  205  A    between atoms: _511  and  _514
REMARK  206  A    between atoms: _514  and  _515
REMARK  207  A    between atoms: _515  and  _516
REMARK  208  A    between atoms: _516  and  _517
REMARK  209  A    between atoms: _517  and  _518
REMARK  210  A    between atoms: _522  and  _524
REMARK  211  A    between atoms: _524  and  _525
REMARK  212  A    between atoms: _524  and  _527
REMARK  213  A    between atoms: _527  and  _528
REMARK  214  A    between atoms: _530  and  _532
REMARK  215  A    between atoms: _532  and  _533
REMARK  216  A    between atoms: _532  and  _535
REMARK  217  A    between atoms: _535  and  _536
REMARK  218  A    between atoms: _539  and  _541
REMARK  219  A    between atoms: _541  and  _542
REMARK  220  A    between atoms: _541  and  _544
REMARK  221  A    between atoms: _544  and  _545
REMARK  222  A    between atoms: _545  and  _546
REMARK  223  A    between atoms: _549  and  _551
REMARK  224  A    between atoms: _551  and  _552
REMARK  225  A    between atoms: _555  and  _557
REMARK  226  A    between atoms: _557  and  _558
REMARK  227  A    between atoms: _557  and  _560
REMARK  228  A    between atoms: _560  and  _561
REMARK  229  A    between atoms: _563  and  _565
REMARK  230  A    between atoms: _565  and  _566
REMARK  231  A    between atoms: _568  and  _570
REMARK  232  A    between atoms: _570  and  _571
REMARK  233  A    between atoms: _570  and  _573
REMARK  234  A    between atoms: _573  and  _574
REMARK  235  A    between atoms: _577  and  _579
REMARK  236  A    between atoms: _579  and  _580
REMARK  237  A    between atoms: _582  and  _584
REMARK  238  A    between atoms: _584  and  _585
REMARK  239  A    between atoms: _584  and  _587
REMARK  240  A    between atoms: _587  and  _588
REMARK  241  A    between atoms: _593  and  _595
REMARK  242  A    between atoms: _595  and  _596
REMARK  243  A    between atoms: _595  and  _598
REMARK  244  A    between atoms: _598  and  _599
REMARK  245  A    between atoms: _599  and  _600
REMARK  246  A    between atoms: _607  and  _608
REMARK  247  A    between atoms: _608  and  _624
REMARK  248  A    between atoms: _609  and  _611
REMARK  249  A    between atoms: _611  and  _612
REMARK  250  A    between atoms: _612  and  _613
REMARK  251  A    between atoms: _617  and  _619
REMARK  252  A    between atoms: _619  and  _620
REMARK  253  A    between atoms: _619  and  _627
REMARK  254  A    between atoms: _620  and  _621
REMARK  255  A    between atoms: _621  and  _622
REMARK  256  A    between atoms: _622  and  _623
REMARK  257  A    between atoms: _623  and  _624
REMARK  258  A    between atoms: _629  and  _631
REMARK  259  A    between atoms: _631  and  _632
REMARK  260  A    between atoms: _631  and  _634
REMARK  261  A    between atoms: _634  and  _635
REMARK  262  A    between atoms: _638  and  _640
REMARK  263  A    between atoms: _640  and  _641
REMARK  264  A    between atoms: _643  and  _645
REMARK  265  A    between atoms: _645  and  _646
REMARK  266  A    between atoms: _649  and  _651
REMARK  267  A    between atoms: _651  and  _652
REMARK  268  A    between atoms: _651  and  _654
REMARK  269  A    between atoms: _654  and  _655
REMARK  270  A    between atoms: _660  and  _661
REMARK                            x       y       z     vdW  Elec       q    Type
REMARK                         _______ _______ _______ _____ _____    ______ ____
ROOT
ATOM      1  C   TYR A   1      33.476  32.147  20.672  0.00  0.00    +0.239 C 
ATOM      2  N   LYS A   2      32.440  32.253  21.499  0.00  0.00    -0.298 N 
ATOM      3  H   LYS A   2      32.581  32.705  22.425  0.00  0.00    +0.150 HD
ATOM      4  O   TYR A   1      33.400  31.638  19.555  0.00  0.00    -0.274 OA
ENDROOT
BRANCH   1   5
ATOM      5  CA  TYR A   1      34.805  32.713  21.164  0.00  0.00    +0.149 C 
BRANCH   5   6
ATOM      6  N   TYR A   1      34.653  33.818  22.120  0.00  0.00    -0.238 NA
ATOM      7  H   TYR A   1      34.951  33.697  23.109  0.00  0.00    +0.142 HD
ENDBRANCH   5   6
BRANCH   5   8
ATOM      8  CB  TYR A   1      35.759  31.619  21.667  0.00  0.00    +0.053 C 
BRANCH   8   9
ATOM      9  CG  TYR A   1      35.167  30.506  22.503  0.00  0.00    -0.020 A 
ATOM     10  CD2 TYR A   1      35.246  30.538  23.895  0.00  0.00    -0.001 A 
ATOM     11  CE2 TYR A   1      34.729  29.502  24.671  0.00  0.00    +0.036 A 
ATOM     12  CZ  TYR A   1      34.144  28.411  24.052  0.00  0.00    +0.134 A 
ATOM     13  CE1 TYR A   1      34.069  28.347  22.666  0.00  0.00    +0.036 A 
ATOM     14  CD1 TYR A   1      34.586  29.385  21.901  0.00  0.00    -0.001 A 
BRANCH  12  15
ATOM     15  OH  TYR A   1      33.635  27.375  24.815  0.00  0.00    -0.506 OA
ATOM     16  HH  TYR A   1      33.256  26.682  24.218  0.00  0.00    +0.292 HD
ENDBRANCH  12  15
ENDBRANCH   8   9
ENDBRANCH   5   8
ENDBRANCH   1   5
BRANCH   2  17
ATOM     17  CA  LYS A   2      31.108  31.756  21.151  0.00  0.00    +0.137 C 
BRANCH  17  18
ATOM     18  C   LYS A   2      30.368  32.706  20.198  0.00  0.00    +0.227 C 
ATOM     19  O   LYS A   2      29.342  32.347  19.612  0.00  0.00    -0.286 OA
ENDBRANCH  17  18
BRANCH  17  20
ATOM     20  CB  LYS A   2      30.292  31.486  22.420  0.00  0.00    +0.028 C 
BRANCH  20  21
ATOM     21  CG  LYS A   2      30.793  30.267  23.203  0.00  0.00    -0.000 C 
BRANCH  21  22
ATOM     22  CD  LYS A   2      30.172  30.182  24.588  0.00  0.00    -0.024 C 
BRANCH  22  23
ATOM     23  CE  LYS A   2      30.653  28.962  25.367  0.00  0.00    -0.086 C 
BRANCH  23  24
ATOM     24  NZ  LYS A   2      30.085  27.669  24.822  0.00  0.00    +0.380 N 
ATOM     25  HZ1 LYS A   2      30.442  26.871  25.385  0.00  0.00    -0.089 HD
ATOM     26  HZ2 LYS A   2      29.047  27.697  24.877  0.00  0.00    -0.089 HD
ATOM     27  HZ3 LYS A   2      30.378  27.554  23.831  0.00  0.00    -0.089 HD
ENDBRANCH  23  24
ENDBRANCH  22  23
ENDBRANCH  21  22
ENDBRANCH  20  21
ENDBRANCH  17  20
ENDBRANCH   2  17
TORSDOF 12
REMARK  Name = ../refined-set-2016/2qrm/2qrm_pocket.pdb
REMARK  270 active torsions:
REMARK  status: ('A' for Active; 'I' for Inactive)
REMARK    1  A    between atoms: _1  and  _3
REMARK    2  A    between atoms: _3  and  _4
REMARK    3  A    between atoms: _3  and  _6
REMARK    4  A    between atoms: _6  and  _7
REMARK    5  A    between atoms: _12  and  _13
REMARK    6  A    between atoms: _15  and  _17
REMARK    7  A    between atoms: _17  and  _18
REMARK    8  A    between atoms: _17  and  _20
REMARK    9  A    between atoms: _20  and  _21
REMARK   10  A    between atoms: _24  and  _26
REMARK   11  A    between atoms: _26  and  _27
REMARK   12  A    between atoms: _26  and  _29
REMARK   13  A    between atoms: _29  and  _30
REMARK   14  A    between atoms: _30  and  _31
REMARK   15  A    between atoms: _34  and  _36
REMARK   16  A    between atoms: _36  and  _37
REMARK   17  A    between atoms: _39  and  _41
REMARK   18  A    between atoms: _41  and  _42
REMARK   19  A    between atoms: _41  and  _44
REMARK   20  A    between atoms: _44  and  _45
REMARK   21  A    between atoms: _50  and  _52
REMARK   22  A    between atoms: _52  and  _53
REMARK   23  A    between atoms: _55  and  _57
REMARK   24  A    between atoms: _57  and  _58
REMARK   25  A    between atoms: _60  and  _62
REMARK   26  A    between atoms: _62  and  _63
REMARK   27  A    between atoms: _62  and  _65
REMARK   28  A    between atoms: _65  and  _66
REMARK   29  A    between atoms: _69  and  _71
REMARK   30  A    between atoms: _71  and  _72
REMARK   31  A    between atoms: _74  and  _76
REMARK   32  A    between atoms: _76  and  _77
REMARK   33  A    between atoms: _76  and  _79
REMARK   34  A    between atoms: _79  and  _80
REMARK   35  A    between atoms: _80  and  _81
REMARK   36  A    between atoms: _81  and  _82
REMARK   37  A    between atoms: _91  and  _93
REMARK   38  A    between atoms: _93  and  _94
REMARK   39  A    between atoms: _93  and  _96
REMARK   40  A    between atoms: _96  and  _97
REMARK   41  A    between atoms: _100  and  _102
REMARK   42  A    between atoms: _102  and  _103
REMARK   43  A    between atoms: _106  and  _108
REMARK   44  A    between atoms: _108  and  _109
REMARK   45  A    between atoms: _108  and  _111
REMARK   46  A    between atoms: _111  and  _112
REMARK   47  A    between atoms: _118  and  _120
REMARK   48  A    between atoms: _120  and  _121
REMARK   49  A    between atoms: _120  and  _123
REMARK   50  A    between atoms: _123  and  _124
REMARK   51  A    between atoms: _129  and  _130
REMARK   52  A    between atoms: _132  and  _134
REMARK   53  A    between atoms: _134  and  _135
REMARK   54  A    between atoms: _134  and  _137
REMARK   55  A    between atoms: _137  and  _138
REMARK   56  A    between atoms: _141  and  _143
REMARK   57  A    between atoms: _143  and  _144
REMARK   58  A    between atoms: _143  and  _146
REMARK   59  A    between atoms: _146  and  _147
REMARK   60  A    between atoms: _152  and  _153
REMARK   61  A    between atoms: _156  and  _157
REMARK   62  A    between atoms: _162  and  _164
REMARK   63  A    between atoms: _164  and  _165
REMARK   64  A    between atoms: _164  and  _167
REMARK   65  A    between atoms: _167  and  _168
REMARK   66  A    between atoms: _173  and  _175
REMARK   67  A    between atoms: _175  and  _176
REMARK   68  A    between atoms: _175  and  _178
REMARK   69  A    between atoms: _178  and  _179
REMARK   70  A    between atoms: _182  and  _184
REMARK   71  A    between atoms: _184  and  _185
REMARK   72  A    between atoms: _184  and  _187
REMARK   73  A    between atoms: _187  and  _188
REMARK   74  A    between atoms: _193  and  _195
REMARK   75  A    between atoms: _195  and  _196
REMARK   76  A    between atoms: _195  and  _198
REMARK   77  A    between atoms: _198  and  _199
REMARK   78  A    between atoms: _205  and  _207
REMARK   79  A    between atoms: _207  and  _208
REMARK   80  A    between atoms: _207  and  _210
REMARK   81  A    between atoms: _210  and  _211
REMARK   82  A    between atoms: _217  and  _219
REMARK   83  A    between atoms: _219  and  _220
REMARK   84  A    between atoms: _219  and  _222
REMARK   85  A    between atoms: _222  and  _223
REMARK   86  A    between atoms: _223  and  _224
REMARK   87  A    between atoms: _227  and  _229
REMARK   88  A    between atoms: _229  and  _230
REMARK   89  A    between atoms: _229  and  _232
REMARK   90  A    between atoms: _232  and  _233
REMARK   91  A    between atoms: _233  and  _234
REMARK   92  A    between atoms: _234  and  _235
REMARK   93  A    between atoms: _244  and  _246
REMARK   94  A    between atoms: _246  and  _247
REMARK   95  A    between atoms: _246  and  _249
REMARK   96  A    between atoms: _249  and  _250
REMARK   97  A    between atoms: _250  and  _251
REMARK   98  A    between atoms: _254  and  _256
REMARK   99  A    between atoms: _256  and  _257
REMARK  100  A    between atoms: _256  and  _259
REMARK  101  A    between atoms: _259  and  _260
REMARK  102  A    between atoms: _265  and  _267
REMARK  103  A    between atoms: _267  and  _268
REMARK  104  A    between atoms: _267  and  _270
REMARK  105  A    between atoms: _270  and  _271
REMARK  106  A    between atoms: _274  and  _276
REMARK  107  A    between atoms: _276  and  _277
REMARK  108  A    between atoms: _276  and  _279
REMARK  109  A    between atoms: _279  and  _280
REMARK  110  A    between atoms: _283  and  _285
REMARK  111  A    between atoms: _285  and  _286
REMARK  112  A    between atoms: _285  and  _288
REMARK  113  A    between atoms: _288  and  _289
REMARK  114  A    between atoms: _294  and  _296
REMARK  115  A    between atoms: _296  and  _297
REMARK  116  A    between atoms: _296  and  _299
REMARK  117  A    between atoms: _299  and  _300
REMARK  118  A    between atoms: _303  and  _305
REMARK  119  A    between atoms: _305  and  _306
REMARK  120  A    between atoms: _305  and  _308
REMARK  121  A    between atoms: _308  and  _309
REMARK  122  A    between atoms: _314  and  _316
REMARK  123  A    between atoms: _316  and  _317
REMARK  124  A    between atoms: _316  and  _319
REMARK  125  A    between atoms: _319  and  _320
REMARK  126  A    between atoms: _325  and  _327
REMARK  127  A    between atoms: _327  and  _328
REMARK  128  A    between atoms: _327  and  _330
REMARK  129  A    between atoms: _330  and  _331
REMARK  130  A    between atoms: _334  and  _336
REMARK  131  A    between atoms: _336  and  _337
REMARK  132  A    between atoms: _336  and  _339
REMARK  133  A    between atoms: _342  and  _344
REMARK  134  A    between atoms: _344  and  _345
REMARK  135  A    between atoms: _344  and  _347
REMARK  136  A    between atoms: _347  and  _348
REMARK  137  A    between atoms: _351  and  _353
REMARK  138  A    between atoms: _353  and  _354
REMARK  139  A    between atoms: _353  and  _356
REMARK  140  A    between atoms: _356  and  _357
REMARK  141  A    between atoms: _357  and  _358
REMARK  142  A    between atoms: _361  and  _363
REMARK  143  A    between atoms: _363  and  _364
REMARK  144  A    between atoms: _367  and  _369
REMARK  145  A    between atoms: _369  and  _370
REMARK  146  A    between atoms: _369  and  _372
REMARK  147  A    between atoms: _372  and  _373
REMARK  148  A    between atoms: _376  and  _378
REMARK  149  A    between atoms: _378  and  _379
REMARK  150  A    between atoms: _378  and  _381
REMARK  151  A    between atoms: _381  and  _382
REMARK  152  A    between atoms: _382  and  _383
REMARK  153  A    between atoms: _386  and  _388
REMARK  154  A    between atoms: _388  and  _389
REMARK  155  A    between atoms: _388  and  _391
REMARK  156  A    between atoms: _391  and  _392
REMARK  157  A    between atoms: _397  and  _399
REMARK  158  A    between atoms: _399  and  _400
REMARK  159  A    between atoms: _402  and  _404
REMARK  160  A    between atoms: _404  and  _405
REMARK  161  A    between atoms: _404  and  _407
REMARK  162  A    between atoms: _410  and  _412
REMARK  163  A    between atoms: _412  and  _413
REMARK  164  A    between atoms: _416  and  _418
REMARK  165  A    between atoms: _418  and  _419
REMARK  166  A    between atoms: _418  and  _421
REMARK  167  A    between atoms: _421  and  _422
REMARK  168  A    between atoms: _427  and  _429
REMARK  169  A    between atoms: _429  and  _430
REMARK  170  A    between atoms: _429  and  _432
REMARK  171  A    between atoms: _432  and  _433
REMARK  172  A    between atoms: _433  and  _434
REMARK  173  A    between atoms: _434  and  _435
REMARK  174  A    between atoms: _435  and  _436
REMARK  175  A    between atoms: _440  and  _442
REMARK  176  A    between atoms: _442  and  _443
REMARK  177  A    between atoms: _442  and  _445
REMARK  178  A    between atoms: _445  and  _446
REMARK  179  A    between atoms: _449  and  _451
REMARK  180  A    between atoms: _451  and  _452
REMARK  181  A    between atoms: _451  and  _454
REMARK  182  A    between atoms: _454  and  _455
REMARK  183  A    between atoms: _460  and  _462
REMARK  184  A    between atoms: _462  and  _463
REMARK  185  A    between atoms: _465  and  _467
REMARK  186  A    between atoms: _467  and  _468
REMARK  187  A    between atoms: _467  and  _470
REMARK  188  A    between atoms: _470  and  _471
REMARK  189  A    between atoms: _471  and  _472
REMARK  190  A    between atoms: _472  and  _473
REMARK  191  A    between atoms: _473  and  _474
REMARK  192  A    between atoms: _478  and  _480
REMARK  193  A    between atoms: _480  and  _481
REMARK  194  A    between atoms: _480  and  _483
REMARK  195  A    between atoms: _483  and  _484
REMARK  196  A    between atoms: _484  and  _485
REMARK  197  A    between atoms: _485  and  _486
REMARK  198  A    between atoms: _495  and  _497
REMARK  199  A    between atoms: _497  and  _498
REMARK  200  A    between atoms: _497  and  _500
REMARK  201  A    between atoms: _500  and  _501
REMARK  202  A    between atoms: _506  and  _507
REMARK  203  A    between atoms: _509  and  _511
REMARK  204  A    between atoms: _511  and  _512
REMARK  205  A    between atoms: _511  and  _514
REMARK  206  A    between atoms: _514  and  _515
REMARK  207  A    between atoms: _515  and  _516
REMARK  208  A    between atoms: _516  and  _517
REMARK  209  A    between atoms: _517  and  _518
REMARK  210  A    between atoms: _522  and  _524
REMARK  211  A    between atoms: _524  and  _525
REMARK  212  A    between atoms: _524  and  _527
REMARK  213  A    between atoms: _527  and  _528
REMARK  214  A    between atoms: _530  and  _532
REMARK  215  A    between atoms: _532  and  _533
REMARK  216  A    between atoms: _532  and  _535
REMARK  217  A    between atoms: _535  and  _536
REMARK  218  A    between atoms: _539  and  _541
REMARK  219  A    between atoms: _541  and  _542
REMARK  220  A    between atoms: _541  and  _544
REMARK  221  A    between atoms: _544  and  _545
REMARK  222  A    between atoms: _545  and  _546
REMARK  223  A    between atoms: _549  and  _551
REMARK  224  A    between atoms: _551  and  _552
REMARK  225  A    between atoms: _555  and  _557
REMARK  226  A    between atoms: _557  and  _558
REMARK  227  A    between atoms: _557  and  _560
REMARK  228  A    between atoms: _560  and  _561
REMARK  229  A    between atoms: _563  and  _565
REMARK  230  A    between atoms: _565  and  _566
REMARK  231  A    between atoms: _568  and  _570
REMARK  232  A    between atoms: _570  and  _571
REMARK  233  A    between atoms: _570  and  _573
REMARK  234  A    between atoms: _573  and  _574
REMARK  235  A    between atoms: _577  and  _579
REMARK  236  A    between atoms: _579  and  _580
REMARK  237  A    between atoms: _582  and  _584
REMARK  238  A    between atoms: _584  and  _585
REMARK  239  A    between atoms: _584  and  _587
REMARK  240  A    between atoms: _587  and  _588
REMARK  241  A    between atoms: _593  and  _595
REMARK  242  A    between atoms: _595  and  _596
REMARK  243  A    between atoms: _595  and  _598
REMARK  244  A    between atoms: _598  and  _599
REMARK  245  A    between atoms: _599  and  _600
REMARK  246  A    between atoms: _607  and  _608
REMARK  247  A    between atoms: _608  and  _624
REMARK  248  A    between atoms: _609  and  _611
REMARK  249  A    between atoms: _611  and  _612
REMARK  250  A    between atoms: _612  and  _613
REMARK  251  A    between atoms: _617  and  _619
REMARK  252  A    between atoms: _619  and  _620
REMARK  253  A    between atoms: _619  and  _627
REMARK  254  A    between atoms: _620  and  _621
REMARK  255  A    between atoms: _621  and  _622
REMARK  256  A    between atoms: _622  and  _623
REMARK  257  A    between atoms: _623  and  _624
REMARK  258  A    between atoms: _629  and  _631
REMARK  259  A    between atoms: _631  and  _632
REMARK  260  A    between atoms: _631  and  _634
REMARK  261  A    between atoms: _634  and  _635
REMARK  262  A    between atoms: _638  and  _640
REMARK  263  A    between atoms: _640  and  _641
REMARK  264  A    between atoms: _643  and  _645
REMARK  265  A    between atoms: _645  and  _646
REMARK  266  A    between atoms: _649  and  _651
REMARK  267  A    between atoms: _651  and  _652
REMARK  268  A    between atoms: _651  and  _654
REMARK  269  A    between atoms: _654  and  _655
REMARK  270  A    between atoms: _660  and  _661
REMARK                            x       y       z     vdW  Elec       q    Type
REMARK                         _______ _______ _______ _____ _____    ______ ____
ROOT
ATOM      1  CA  SER A   1      31.854  29.577  17.451  0.00  0.00    +0.163 C 
ENDROOT
BRANCH   1   2
ATOM      2  N   SER A   1      30.475  29.361  16.999  0.00  0.00    -0.237 NA
ATOM      3  H   SER A   1      29.965  28.519  17.334  0.00  0.00    +0.142 HD
ENDBRANCH   1   2
BRANCH   1   4
ATOM      4  C   SER A   1      32.830  29.599  16.266  0.00  0.00    +0.227 C 
ATOM      5  O   SER A   1      32.593  28.953  15.248  0.00  0.00    -0.287 OA
ENDBRANCH   1   4
BRANCH   1   6
ATOM      6  CB  SER A   1      32.256  28.472  18.424  0.00  0.00    +0.162 C 
BRANCH   6   7
ATOM      7  OG  SER A   1      32.019  27.192  17.850  0.00  0.00    -0.380 OA
ATOM      8  H   SER A   1      31.056  27.100  17.638  0.00  0.00    +0.211 HD
ENDBRANCH   6   7
ENDBRANCH   1   6
TORSDOF 4
REMARK  Name = ../refined-set-2016/2qrm/2qrm_pocket.pdb
REMARK  270 active torsions:
REMARK  status: ('A' for Active; 'I' for Inactive)
REMARK    1  A    between atoms: _1  and  _3
REMARK    2  A    between atoms: _3  and  _4
REMARK    3  A    between atoms: _3  and  _6
REMARK    4  A    between atoms: _6  and  _7
REMARK    5  A    between atoms: _12  and  _13
REMARK    6  A    between atoms: _15  and  _17
REMARK    7  A    between atoms: _17  and  _18
REMARK    8  A    between atoms: _17  and  _20
REMARK    9  A    between atoms: _20  and  _21
REMARK   10  A    between atoms: _24  and  _26
REMARK   11  A    between atoms: _26  and  _27
REMARK   12  A    between atoms: _26  and  _29
REMARK   13  A    between atoms: _29  and  _30
REMARK   14  A    between atoms: _30  and  _31
REMARK   15  A    between atoms: _34  and  _36
REMARK   16  A    between atoms: _36  and  _37
REMARK   17  A    between atoms: _39  and  _41
REMARK   18  A    between atoms: _41  and  _42
REMARK   19  A    between atoms: _41  and  _44
REMARK   20  A    between atoms: _44  and  _45
REMARK   21  A    between atoms: _50  and  _52
REMARK   22  A    between atoms: _52  and  _53
REMARK   23  A    between atoms: _55  and  _57
REMARK   24  A    between atoms: _57  and  _58
REMARK   25  A    between atoms: _60  and  _62
REMARK   26  A    between atoms: _62  and  _63
REMARK   27  A    between atoms: _62  and  _65
REMARK   28  A    between atoms: _65  and  _66
REMARK   29  A    between atoms: _69  and  _71
REMARK   30  A    between atoms: _71  and  _72
REMARK   31  A    between atoms: _74  and  _76
REMARK   32  A    between atoms: _76  and  _77
REMARK   33  A    between atoms: _76  and  _79
REMARK   34  A    between atoms: _79  and  _80
REMARK   35  A    between atoms: _80  and  _81
REMARK   36  A    between atoms: _81  and  _82
REMARK   37  A    between atoms: _91  and  _93
REMARK   38  A    between atoms: _93  and  _94
REMARK   39  A    between atoms: _93  and  _96
REMARK   40  A    between atoms: _96  and  _97
REMARK   41  A    between atoms: _100  and  _102
REMARK   42  A    between atoms: _102  and  _103
REMARK   43  A    between atoms: _106  and  _108
REMARK   44  A    between atoms: _108  and  _109
REMARK   45  A    between atoms: _108  and  _111
REMARK   46  A    between atoms: _111  and  _112
REMARK   47  A    between atoms: _118  and  _120
REMARK   48  A    between atoms: _120  and  _121
REMARK   49  A    between atoms: _120  and  _123
REMARK   50  A    between atoms: _123  and  _124
REMARK   51  A    between atoms: _129  and  _130
REMARK   52  A    between atoms: _132  and  _134
REMARK   53  A    between atoms: _134  and  _135
REMARK   54  A    between atoms: _134  and  _137
REMARK   55  A    between atoms: _137  and  _138
REMARK   56  A    between atoms: _141  and  _143
REMARK   57  A    between atoms: _143  and  _144
REMARK   58  A    between atoms: _143  and  _146
REMARK   59  A    between atoms: _146  and  _147
REMARK   60  A    between atoms: _152  and  _153
REMARK   61  A    between atoms: _156  and  _157
REMARK   62  A    between atoms: _162  and  _164
REMARK   63  A    between atoms: _164  and  _165
REMARK   64  A    between atoms: _164  and  _167
REMARK   65  A    between atoms: _167  and  _168
REMARK   66  A    between atoms: _173  and  _175
REMARK   67  A    between atoms: _175  and  _176
REMARK   68  A    between atoms: _175  and  _178
REMARK   69  A    between atoms: _178  and  _179
REMARK   70  A    between atoms: _182  and  _184
REMARK   71  A    between atoms: _184  and  _185
REMARK   72  A    between atoms: _184  and  _187
REMARK   73  A    between atoms: _187  and  _188
REMARK   74  A    between atoms: _193  and  _195
REMARK   75  A    between atoms: _195  and  _196
REMARK   76  A    between atoms: _195  and  _198
REMARK   77  A    between atoms: _198  and  _199
REMARK   78  A    between atoms: _205  and  _207
REMARK   79  A    between atoms: _207  and  _208
REMARK   80  A    between atoms: _207  and  _210
REMARK   81  A    between atoms: _210  and  _211
REMARK   82  A    between atoms: _217  and  _219
REMARK   83  A    between atoms: _219  and  _220
REMARK   84  A    between atoms: _219  and  _222
REMARK   85  A    between atoms: _222  and  _223
REMARK   86  A    between atoms: _223  and  _224
REMARK   87  A    between atoms: _227  and  _229
REMARK   88  A    between atoms: _229  and  _230
REMARK   89  A    between atoms: _229  and  _232
REMARK   90  A    between atoms: _232  and  _233
REMARK   91  A    between atoms: _233  and  _234
REMARK   92  A    between atoms: _234  and  _235
REMARK   93  A    between atoms: _244  and  _246
REMARK   94  A    between atoms: _246  and  _247
REMARK   95  A    between atoms: _246  and  _249
REMARK   96  A    between atoms: _249  and  _250
REMARK   97  A    between atoms: _250  and  _251
REMARK   98  A    between atoms: _254  and  _256
REMARK   99  A    between atoms: _256  and  _257
REMARK  100  A    between atoms: _256  and  _259
REMARK  101  A    between atoms: _259  and  _260
REMARK  102  A    between atoms: _265  and  _267
REMARK  103  A    between atoms: _267  and  _268
REMARK  104  A    between atoms: _267  and  _270
REMARK  105  A    between atoms: _270  and  _271
REMARK  106  A    between atoms: _274  and  _276
REMARK  107  A    between atoms: _276  and  _277
REMARK  108  A    between atoms: _276  and  _279
REMARK  109  A    between atoms: _279  and  _280
REMARK  110  A    between atoms: _283  and  _285
REMARK  111  A    between atoms: _285  and  _286
REMARK  112  A    between atoms: _285  and  _288
REMARK  113  A    between atoms: _288  and  _289
REMARK  114  A    between atoms: _294  and  _296
REMARK  115  A    between atoms: _296  and  _297
REMARK  116  A    between atoms: _296  and  _299
REMARK  117  A    between atoms: _299  and  _300
REMARK  118  A    between atoms: _303  and  _305
REMARK  119  A    between atoms: _305  and  _306
REMARK  120  A    between atoms: _305  and  _308
REMARK  121  A    between atoms: _308  and  _309
REMARK  122  A    between atoms: _314  and  _316
REMARK  123  A    between atoms: _316  and  _317
REMARK  124  A    between atoms: _316  and  _319
REMARK  125  A    between atoms: _319  and  _320
REMARK  126  A    between atoms: _325  and  _327
REMARK  127  A    between atoms: _327  and  _328
REMARK  128  A    between atoms: _327  and  _330
REMARK  129  A    between atoms: _330  and  _331
REMARK  130  A    between atoms: _334  and  _336
REMARK  131  A    between atoms: _336  and  _337
REMARK  132  A    between atoms: _336  and  _339
REMARK  133  A    between atoms: _342  and  _344
REMARK  134  A    between atoms: _344  and  _345
REMARK  135  A    between atoms: _344  and  _347
REMARK  136  A    between atoms: _347  and  _348
REMARK  137  A    between atoms: _351  and  _353
REMARK  138  A    between atoms: _353  and  _354
REMARK  139  A    between atoms: _353  and  _356
REMARK  140  A    between atoms: _356  and  _357
REMARK  141  A    between atoms: _357  and  _358
REMARK  142  A    between atoms: _361  and  _363
REMARK  143  A    between atoms: _363  and  _364
REMARK  144  A    between atoms: _367  and  _369
REMARK  145  A    between atoms: _369  and  _370
REMARK  146  A    between atoms: _369  and  _372
REMARK  147  A    between atoms: _372  and  _373
REMARK  148  A    between atoms: _376  and  _378
REMARK  149  A    between atoms: _378  and  _379
REMARK  150  A    between atoms: _378  and  _381
REMARK  151  A    between atoms: _381  and  _382
REMARK  152  A    between atoms: _382  and  _383
REMARK  153  A    between atoms: _386  and  _388
REMARK  154  A    between atoms: _388  and  _389
REMARK  155  A    between atoms: _388  and  _391
REMARK  156  A    between atoms: _391  and  _392
REMARK  157  A    between atoms: _397  and  _399
REMARK  158  A    between atoms: _399  and  _400
REMARK  159  A    between atoms: _402  and  _404
REMARK  160  A    between atoms: _404  and  _405
REMARK  161  A    between atoms: _404  and  _407
REMARK  162  A    between atoms: _410  and  _412
REMARK  163  A    between atoms: _412  and  _413
REMARK  164  A    between atoms: _416  and  _418
REMARK  165  A    between atoms: _418  and  _419
REMARK  166  A    between atoms: _418  and  _421
REMARK  167  A    between atoms: _421  and  _422
REMARK  168  A    between atoms: _427  and  _429
REMARK  169  A    between atoms: _429  and  _430
REMARK  170  A    between atoms: _429  and  _432
REMARK  171  A    between atoms: _432  and  _433
REMARK  172  A    between atoms: _433  and  _434
REMARK  173  A    between atoms: _434  and  _435
REMARK  174  A    between atoms: _435  and  _436
REMARK  175  A    between atoms: _440  and  _442
REMARK  176  A    between atoms: _442  and  _443
REMARK  177  A    between atoms: _442  and  _445
REMARK  178  A    between atoms: _445  and  _446
REMARK  179  A    between atoms: _449  and  _451
REMARK  180  A    between atoms: _451  and  _452
REMARK  181  A    between atoms: _451  and  _454
REMARK  182  A    between atoms: _454  and  _455
REMARK  183  A    between atoms: _460  and  _462
REMARK  184  A    between atoms: _462  and  _463
REMARK  185  A    between atoms: _465  and  _467
REMARK  186  A    between atoms: _467  and  _468
REMARK  187  A    between atoms: _467  and  _470
REMARK  188  A    between atoms: _470  and  _471
REMARK  189  A    between atoms: _471  and  _472
REMARK  190  A    between atoms: _472  and  _473
REMARK  191  A    between atoms: _473  and  _474
REMARK  192  A    between atoms: _478  and  _480
REMARK  193  A    between atoms: _480  and  _481
REMARK  194  A    between atoms: _480  and  _483
REMARK  195  A    between atoms: _483  and  _484
REMARK  196  A    between atoms: _484  and  _485
REMARK  197  A    between atoms: _485  and  _486
REMARK  198  A    between atoms: _495  and  _497
REMARK  199  A    between atoms: _497  and  _498
REMARK  200  A    between atoms: _497  and  _500
REMARK  201  A    between atoms: _500  and  _501
REMARK  202  A    between atoms: _506  and  _507
REMARK  203  A    between atoms: _509  and  _511
REMARK  204  A    between atoms: _511  and  _512
REMARK  205  A    between atoms: _511  and  _514
REMARK  206  A    between atoms: _514  and  _515
REMARK  207  A    between atoms: _515  and  _516
REMARK  208  A    between atoms: _516  and  _517
REMARK  209  A    between atoms: _517  and  _518
REMARK  210  A    between atoms: _522  and  _524
REMARK  211  A    between atoms: _524  and  _525
REMARK  212  A    between atoms: _524  and  _527
REMARK  213  A    between atoms: _527  and  _528
REMARK  214  A    between atoms: _530  and  _532
REMARK  215  A    between atoms: _532  and  _533
REMARK  216  A    between atoms: _532  and  _535
REMARK  217  A    between atoms: _535  and  _536
REMARK  218  A    between atoms: _539  and  _541
REMARK  219  A    between atoms: _541  and  _542
REMARK  220  A    between atoms: _541  and  _544
REMARK  221  A    between atoms: _544  and  _545
REMARK  222  A    between atoms: _545  and  _546
REMARK  223  A    between atoms: _549  and  _551
REMARK  224  A    between atoms: _551  and  _552
REMARK  225  A    between atoms: _555  and  _557
REMARK  226  A    between atoms: _557  and  _558
REMARK  227  A    between atoms: _557  and  _560
REMARK  228  A    between atoms: _560  and  _561
REMARK  229  A    between atoms: _563  and  _565
REMARK  230  A    between atoms: _565  and  _566
REMARK  231  A    between atoms: _568  and  _570
REMARK  232  A    between atoms: _570  and  _571
REMARK  233  A    between atoms: _570  and  _573
REMARK  234  A    between atoms: _573  and  _574
REMARK  235  A    between atoms: _577  and  _579
REMARK  236  A    between atoms: _579  and  _580
REMARK  237  A    between atoms: _582  and  _584
REMARK  238  A    between atoms: _584  and  _585
REMARK  239  A    between atoms: _584  and  _587
REMARK  240  A    between atoms: _587  and  _588
REMARK  241  A    between atoms: _593  and  _595
REMARK  242  A    between atoms: _595  and  _596
REMARK  243  A    between atoms: _595  and  _598
REMARK  244  A    between atoms: _598  and  _599
REMARK  245  A    between atoms: _599  and  _600
REMARK  246  A    between atoms: _607  and  _608
REMARK  247  A    between atoms: _608  and  _624
REMARK  248  A    between atoms: _609  and  _611
REMARK  249  A    between atoms: _611  and  _612
REMARK  250  A    between atoms: _612  and  _613
REMARK  251  A    between atoms: _617  and  _619
REMARK  252  A    between atoms: _619  and  _620
REMARK  253  A    between atoms: _619  and  _627
REMARK  254  A    between atoms: _620  and  _621
REMARK  255  A    between atoms: _621  and  _622
REMARK  256  A    between atoms: _622  and  _623
REMARK  257  A    between atoms: _623  and  _624
REMARK  258  A    between atoms: _629  and  _631
REMARK  259  A    between atoms: _631  and  _632
REMARK  260  A    between atoms: _631  and  _634
REMARK  261  A    between atoms: _634  and  _635
REMARK  262  A    between atoms: _638  and  _640
REMARK  263  A    between atoms: _640  and  _641
REMARK  264  A    between atoms: _643  and  _645
REMARK  265  A    between atoms: _645  and  _646
REMARK  266  A    between atoms: _649  and  _651
REMARK  267  A    between atoms: _651  and  _652
REMARK  268  A    between atoms: _651  and  _654
REMARK  269  A    between atoms: _654  and  _655
REMARK  270  A    between atoms: _660  and  _661
REMARK                            x       y       z     vdW  Elec       q    Type
REMARK                         _______ _______ _______ _____ _____    ______ ____
ROOT
ATOM      1  CA  GLY A   7      23.901  22.499  23.952  0.00  0.00    +0.176 C 
ENDROOT
BRANCH   1   2
ATOM      2  C   GLY A   7      23.415  22.164  22.551  0.00  0.00    +0.243 C 
ATOM      3  O   GLY A   7      22.216  21.929  22.342  0.00  0.00    -0.273 OA
ATOM      4  N   ASN A   8      24.348  22.135  21.596  0.00  0.00    -0.297 N 
ATOM      5  H   ASN A   8      25.321  22.412  21.837  0.00  0.00    +0.150 HD
BRANCH   4   6
ATOM      6  CA  ASN A   8      24.049  21.726  20.215  0.00  0.00    +0.158 C 
BRANCH   6   7
ATOM      7  C   ASN A   8      23.254  20.419  20.097  0.00  0.00    +0.241 C 
ATOM      8  N   MET A   9      23.659  19.427  20.885  0.00  0.00    -0.297 N 
ATOM      9  H   MET A   9      24.452  19.603  21.534  0.00  0.00    +0.150 HD
ATOM     10  O   ASN A   8      22.288  20.329  19.321  0.00  0.00    -0.273 OA
BRANCH   8  11
ATOM     11  CA  MET A   9      23.044  18.102  20.883  0.00  0.00    +0.149 C 
BRANCH  11  12
ATOM     12  C   MET A   9      21.640  18.124  21.469  0.00  0.00    +0.241 C 
ATOM     13  N   UNK A  10      21.445  18.936  22.511  0.00  0.00    -0.298 N 
ATOM     14  H   UNK A  10      22.257  19.465  22.889  0.00  0.00    +0.150 HD
ATOM     15  O   MET A   9      20.755  17.417  20.978  0.00  0.00    -0.273 OA
BRANCH  13  16
ATOM     16  C   UNK A  10      20.134  19.113  23.145  0.00  0.00    +0.137 C 
BRANCH  16  17
ATOM     17  C   UNK A  10      19.103  19.670  22.157  0.00  0.00    +0.227 C 
ATOM     18  O   UNK A  10      17.961  19.197  22.110  0.00  0.00    -0.286 OA
ENDBRANCH  16  17
BRANCH  16  19
ATOM     19  C   UNK A  10      20.237  20.034  24.369  0.00  0.00    +0.028 C 
BRANCH  19  20
ATOM     20  C   UNK A  10      21.269  19.605  25.418  0.00  0.00    -0.000 C 
BRANCH  20  21
ATOM     21  C   UNK A  10      21.404  20.650  26.528  0.00  0.00    -0.023 C 
BRANCH  21  22
ATOM     22  C   UNK A  10      22.642  20.402  27.398  0.00  0.00    -0.081 C 
BRANCH  22  23
ATOM     23  N   UNK A  10      22.877  21.549  28.340  0.00  0.00    +0.387 N 
ATOM     24  H   UNK A  10      22.080  22.214  28.274  0.00  0.00    -0.084 HD
ATOM     25  H   UNK A  10      22.944  21.185  29.312  0.00  0.00    -0.084 HD
BRANCH  23  26
ATOM     26  C   UNK A  10      24.011  22.191  28.032  0.00  0.00    -0.051 C 
BRANCH  26  27
ATOM     27  C   UNK A  10      24.225  23.439  28.863  0.00  0.00    -0.007 C 
ATOM     28  C   UNK A  10      25.359  24.241  28.636  0.00  0.00    +0.023 C 
ATOM     29  C   UNK A  10      25.570  25.399  29.372  0.00  0.00    +0.091 C 
ATOM     30  N   UNK A  10      24.684  25.754  30.363  0.00  0.00    -0.263 NA
ATOM     31  C   UNK A  10      23.569  24.979  30.616  0.00  0.00    +0.164 C 
ATOM     32  C   UNK A  10      22.629  25.397  31.709  0.00  0.00    +0.035 C 
ATOM     33  C   UNK A  10      23.332  23.815  29.880  0.00  0.00    +0.189 C 
ATOM     34  O   UNK A  10      22.325  23.139  30.132  0.00  0.00    -0.290 OA
BRANCH  28  35
ATOM     35  C   UNK A  10      26.346  23.928  27.554  0.00  0.00    +0.181 C 
BRANCH  35  36
ATOM     36  O   UNK A  10      25.989  24.552  26.296  0.00  0.00    -0.265 OA
BRANCH  36  37
ATOM     37  P   UNK A  10      27.049  24.887  25.139  0.00  0.00    +0.533 P 
ATOM     38  O   UNK A  10      27.566  23.565  24.717  0.00  0.00    -0.115 OA
ATOM     39  O   UNK A  10      28.066  25.751  25.780  0.00  0.00    -0.115 OA
ATOM     40  O   UNK A  10      26.176  25.575  24.173  0.00  0.00    -0.222 OA
ENDBRANCH  36  37
ENDBRANCH  35  36
ENDBRANCH  28  35
ENDBRANCH  26  27
ENDBRANCH  23  26
ENDBRANCH  22  23
ENDBRANCH  21  22
ENDBRANCH  20  21
ENDBRANCH  19  20
ENDBRANCH  16  19
ENDBRANCH  13  16
ENDBRANCH  11  12
BRANCH  11  41
ATOM     41  CB  MET A   9      23.910  17.108  21.655  0.00  0.00    +0.041 C 
BRANCH  41  42
ATOM     42  CG  MET A   9      25.339  17.006  21.148  0.00  0.00    +0.060 C 
BRANCH  42  43
ATOM     43  SD  MET A   9      26.347  16.063  22.284  0.00  0.00    -0.139 S 
ATOM     44  CE  MET A   9      27.964  16.233  21.532  0.00  0.00    +0.069 C 
ENDBRANCH  42  43
ENDBRANCH  41  42
ENDBRANCH  11  41
ENDBRANCH   8  11
ENDBRANCH   6   7
BRANCH   6  45
ATOM     45  CB  ASN A   8      25.314  21.700  19.320  0.00  0.00    +0.114 C 
BRANCH  45  46
ATOM     46  CG  ASN A   8      26.502  20.914  19.919  0.00  0.00    +0.222 C 
ATOM     47  ND2 ASN A   8      26.305  20.250  21.050  0.00  0.00    -0.329 N 
ATOM     48 HD21 ASN A   8      25.372  20.270  21.509  0.00  0.00    +0.145 HD
ATOM     49 HD22 ASN A   8      27.084  19.710  21.478  0.00  0.00    +0.145 HD
ATOM     50  OD1 ASN A   8      27.596  20.918  19.339  0.00  0.00    -0.275 OA
ENDBRANCH  45  46
ENDBRANCH   6  45
ENDBRANCH   4   6
ENDBRANCH   1   2
BRANCH   1  52
ATOM     51  C   THR A   6      25.245  20.463  24.109  0.00  0.00    +0.243 C 
ATOM     52  N   GLY A   7      25.135  21.782  24.270  0.00  0.00    -0.295 N 
ATOM     53  H   GLY A   7      25.950  22.316  24.632  0.00  0.00    +0.150 HD
ATOM     54  O   THR A   6      24.289  19.730  23.824  0.00  0.00    -0.273 OA
BRANCH  51  55
ATOM     55  CA  THR A   6      26.643  19.880  24.270  0.00  0.00    +0.176 C 
BRANCH  55  57
ATOM     56  C   GLY A   5      28.672  20.601  23.116  0.00  0.00    +0.243 C 
ATOM     57  N   THR A   6      27.648  20.882  23.915  0.00  0.00    -0.295 N 
ATOM     58  H   THR A   6      27.558  21.844  24.300  0.00  0.00    +0.150 HD
ATOM     59  O   GLY A   5      28.933  19.451  22.732  0.00  0.00    -0.273 OA
BRANCH  56  60
ATOM     60  CA  GLY A   5      29.562  21.766  22.730  0.00  0.00    +0.176 C 
BRANCH  60  62
ATOM     61  C   SER A   4      31.343  20.716  21.442  0.00  0.00    +0.243 C 
ATOM     62  N   GLY A   5      30.918  21.253  22.584  0.00  0.00    -0.295 N 
ATOM     63  H   GLY A   5      31.570  21.308  23.392  0.00  0.00    +0.150 HD
ATOM     64  O   SER A   4      30.760  20.860  20.363  0.00  0.00    -0.273 OA
BRANCH  61  65
ATOM     65  CA  SER A   4      32.634  19.926  21.529  0.00  0.00    +0.178 C 
BRANCH  65  67
ATOM     66  C   ALA A   3      34.946  20.671  21.392  0.00  0.00    +0.241 C 
ATOM     67  N   SER A   4      33.739  20.782  21.944  0.00  0.00    -0.295 N 
ATOM     68  H   SER A   4      33.581  21.494  22.686  0.00  0.00    +0.150 HD
ATOM     69  O   ALA A   3      35.215  19.825  20.537  0.00  0.00    -0.273 OA
BRANCH  66  70
ATOM     70  CA  ALA A   3      36.005  21.678  21.846  0.00  0.00    +0.149 C 
ATOM     71  CB  ALA A   3      36.545  21.316  23.225  0.00  0.00    +0.031 C 
BRANCH  70  73
ATOM     72  C   GLU A   2      34.912  23.582  20.752  0.00  0.00    +0.241 C 
ATOM     73  N   ALA A   3      35.501  23.057  21.828  0.00  0.00    -0.297 N 
ATOM     74  H   ALA A   3      35.606  23.643  22.681  0.00  0.00    +0.150 HD
ATOM     75  O   GLU A   2      34.689  22.942  19.731  0.00  0.00    -0.273 OA
BRANCH  72  76
ATOM     76  CA  GLU A   2      34.522  25.052  20.828  0.00  0.00    +0.149 C 
BRANCH  76  79
ATOM     77  C   THR A   1      36.584  26.297  20.453  0.00  0.00    +0.241 C 
ATOM     78  O   THR A   1      36.902  26.212  21.639  0.00  0.00    -0.274 OA
ATOM     79  N   GLU A   2      35.437  25.813  19.978  0.00  0.00    -0.297 N 
ATOM     80  H   GLU A   2      35.187  25.980  18.982  0.00  0.00    +0.150 HD
BRANCH  77  81
ATOM     81  CA  THR A   1      37.512  27.006  19.463  0.00  0.00    +0.172 C 
BRANCH  81  82
ATOM     82  N   THR A   1      37.552  26.422  18.115  0.00  0.00    -0.236 NA
ATOM     83  H   THR A   1      36.717  26.491  17.499  0.00  0.00    +0.142 HD
ENDBRANCH  81  82
BRANCH  81  84
ATOM     84  CB  THR A   1      37.177  28.522  19.448  0.00  0.00    +0.135 C 
ATOM     85  CG2 THR A   1      38.202  29.303  18.633  0.00  0.00    +0.034 C 
BRANCH  84  86
ATOM     86  OG1 THR A   1      35.865  28.731  18.905  0.00  0.00    -0.383 OA
ATOM     87  HG1 THR A   1      35.833  28.381  17.979  0.00  0.00    +0.210 HD
ENDBRANCH  84  86
ENDBRANCH  81  84
ENDBRANCH  77  81
ENDBRANCH  76  79
BRANCH  76  88
ATOM     88  CB  GLU A   2      33.069  25.241  20.371  0.00  0.00    +0.041 C 
BRANCH  88  89
ATOM     89  CG  GLU A   2      32.020  24.721  21.353  0.00  0.00    +0.116 C 
BRANCH  89  90
ATOM     90  CD  GLU A   2      31.841  25.636  22.548  0.00  0.00    +0.365 C 
ATOM     91  OE2 GLU A   2      32.485  25.376  23.586  0.00  0.00    -0.246 OA
ATOM     92  OE1 GLU A   2      31.077  26.624  22.450  0.00  0.00    -0.246 OA
ENDBRANCH  89  90
ENDBRANCH  88  89
ENDBRANCH  76  88
ENDBRANCH  72  76
ENDBRANCH  70  73
ENDBRANCH  66  70
ENDBRANCH  65  67
BRANCH  65  93
ATOM     93  CB  SER A   4      32.461  18.764  22.513  0.00  0.00    +0.166 C 
BRANCH  93  94
ATOM     94  OG  SER A   4      31.284  18.028  22.231  0.00  0.00    -0.380 OA
ATOM     95  H   SER A   4      30.498  18.625  22.304  0.00  0.00    +0.211 HD
ENDBRANCH  93  94
ENDBRANCH  65  93
ENDBRANCH  61  65
ENDBRANCH  60  62
ENDBRANCH  56  60
ENDBRANCH  55  57
BRANCH  55  96
ATOM     96  CB  THR A   6      26.822  19.336  25.698  0.00  0.00    +0.137 C 
ATOM     97  CG2 THR A   6      28.083  18.483  25.801  0.00  0.00    +0.034 C 
BRANCH  96  98
ATOM     98  OG1 THR A   6      26.902  20.430  26.615  0.00  0.00    -0.382 OA
ATOM     99  HG1 THR A   6      27.017  20.081  27.534  0.00  0.00    +0.210 HD
ENDBRANCH  96  98
ENDBRANCH  55  96
ENDBRANCH  51  55
ENDBRANCH   1  52
TORSDOF 44
REMARK  Name = ../refined-set-2016/2qrm/2qrm_pocket.pdb
REMARK  270 active torsions:
REMARK  status: ('A' for Active; 'I' for Inactive)
REMARK    1  A    between atoms: _1  and  _3
REMARK    2  A    between atoms: _3  and  _4
REMARK    3  A    between atoms: _3  and  _6
REMARK    4  A    between atoms: _6  and  _7
REMARK    5  A    between atoms: _12  and  _13
REMARK    6  A    between atoms: _15  and  _17
REMARK    7  A    between atoms: _17  and  _18
REMARK    8  A    between atoms: _17  and  _20
REMARK    9  A    between atoms: _20  and  _21
REMARK   10  A    between atoms: _24  and  _26
REMARK   11  A    between atoms: _26  and  _27
REMARK   12  A    between atoms: _26  and  _29
REMARK   13  A    between atoms: _29  and  _30
REMARK   14  A    between atoms: _30  and  _31
REMARK   15  A    between atoms: _34  and  _36
REMARK   16  A    between atoms: _36  and  _37
REMARK   17  A    between atoms: _39  and  _41
REMARK   18  A    between atoms: _41  and  _42
REMARK   19  A    between atoms: _41  and  _44
REMARK   20  A    between atoms: _44  and  _45
REMARK   21  A    between atoms: _50  and  _52
REMARK   22  A    between atoms: _52  and  _53
REMARK   23  A    between atoms: _55  and  _57
REMARK   24  A    between atoms: _57  and  _58
REMARK   25  A    between atoms: _60  and  _62
REMARK   26  A    between atoms: _62  and  _63
REMARK   27  A    between atoms: _62  and  _65
REMARK   28  A    between atoms: _65  and  _66
REMARK   29  A    between atoms: _69  and  _71
REMARK   30  A    between atoms: _71  and  _72
REMARK   31  A    between atoms: _74  and  _76
REMARK   32  A    between atoms: _76  and  _77
REMARK   33  A    between atoms: _76  and  _79
REMARK   34  A    between atoms: _79  and  _80
REMARK   35  A    between atoms: _80  and  _81
REMARK   36  A    between atoms: _81  and  _82
REMARK   37  A    between atoms: _91  and  _93
REMARK   38  A    between atoms: _93  and  _94
REMARK   39  A    between atoms: _93  and  _96
REMARK   40  A    between atoms: _96  and  _97
REMARK   41  A    between atoms: _100  and  _102
REMARK   42  A    between atoms: _102  and  _103
REMARK   43  A    between atoms: _106  and  _108
REMARK   44  A    between atoms: _108  and  _109
REMARK   45  A    between atoms: _108  and  _111
REMARK   46  A    between atoms: _111  and  _112
REMARK   47  A    between atoms: _118  and  _120
REMARK   48  A    between atoms: _120  and  _121
REMARK   49  A    between atoms: _120  and  _123
REMARK   50  A    between atoms: _123  and  _124
REMARK   51  A    between atoms: _129  and  _130
REMARK   52  A    between atoms: _132  and  _134
REMARK   53  A    between atoms: _134  and  _135
REMARK   54  A    between atoms: _134  and  _137
REMARK   55  A    between atoms: _137  and  _138
REMARK   56  A    between atoms: _141  and  _143
REMARK   57  A    between atoms: _143  and  _144
REMARK   58  A    between atoms: _143  and  _146
REMARK   59  A    between atoms: _146  and  _147
REMARK   60  A    between atoms: _152  and  _153
REMARK   61  A    between atoms: _156  and  _157
REMARK   62  A    between atoms: _162  and  _164
REMARK   63  A    between atoms: _164  and  _165
REMARK   64  A    between atoms: _164  and  _167
REMARK   65  A    between atoms: _167  and  _168
REMARK   66  A    between atoms: _173  and  _175
REMARK   67  A    between atoms: _175  and  _176
REMARK   68  A    between atoms: _175  and  _178
REMARK   69  A    between atoms: _178  and  _179
REMARK   70  A    between atoms: _182  and  _184
REMARK   71  A    between atoms: _184  and  _185
REMARK   72  A    between atoms: _184  and  _187
REMARK   73  A    between atoms: _187  and  _188
REMARK   74  A    between atoms: _193  and  _195
REMARK   75  A    between atoms: _195  and  _196
REMARK   76  A    between atoms: _195  and  _198
REMARK   77  A    between atoms: _198  and  _199
REMARK   78  A    between atoms: _205  and  _207
REMARK   79  A    between atoms: _207  and  _208
REMARK   80  A    between atoms: _207  and  _210
REMARK   81  A    between atoms: _210  and  _211
REMARK   82  A    between atoms: _217  and  _219
REMARK   83  A    between atoms: _219  and  _220
REMARK   84  A    between atoms: _219  and  _222
REMARK   85  A    between atoms: _222  and  _223
REMARK   86  A    between atoms: _223  and  _224
REMARK   87  A    between atoms: _227  and  _229
REMARK   88  A    between atoms: _229  and  _230
REMARK   89  A    between atoms: _229  and  _232
REMARK   90  A    between atoms: _232  and  _233
REMARK   91  A    between atoms: _233  and  _234
REMARK   92  A    between atoms: _234  and  _235
REMARK   93  A    between atoms: _244  and  _246
REMARK   94  A    between atoms: _246  and  _247
REMARK   95  A    between atoms: _246  and  _249
REMARK   96  A    between atoms: _249  and  _250
REMARK   97  A    between atoms: _250  and  _251
REMARK   98  A    between atoms: _254  and  _256
REMARK   99  A    between atoms: _256  and  _257
REMARK  100  A    between atoms: _256  and  _259
REMARK  101  A    between atoms: _259  and  _260
REMARK  102  A    between atoms: _265  and  _267
REMARK  103  A    between atoms: _267  and  _268
REMARK  104  A    between atoms: _267  and  _270
REMARK  105  A    between atoms: _270  and  _271
REMARK  106  A    between atoms: _274  and  _276
REMARK  107  A    between atoms: _276  and  _277
REMARK  108  A    between atoms: _276  and  _279
REMARK  109  A    between atoms: _279  and  _280
REMARK  110  A    between atoms: _283  and  _285
REMARK  111  A    between atoms: _285  and  _286
REMARK  112  A    between atoms: _285  and  _288
REMARK  113  A    between atoms: _288  and  _289
REMARK  114  A    between atoms: _294  and  _296
REMARK  115  A    between atoms: _296  and  _297
REMARK  116  A    between atoms: _296  and  _299
REMARK  117  A    between atoms: _299  and  _300
REMARK  118  A    between atoms: _303  and  _305
REMARK  119  A    between atoms: _305  and  _306
REMARK  120  A    between atoms: _305  and  _308
REMARK  121  A    between atoms: _308  and  _309
REMARK  122  A    between atoms: _314  and  _316
REMARK  123  A    between atoms: _316  and  _317
REMARK  124  A    between atoms: _316  and  _319
REMARK  125  A    between atoms: _319  and  _320
REMARK  126  A    between atoms: _325  and  _327
REMARK  127  A    between atoms: _327  and  _328
REMARK  128  A    between atoms: _327  and  _330
REMARK  129  A    between atoms: _330  and  _331
REMARK  130  A    between atoms: _334  and  _336
REMARK  131  A    between atoms: _336  and  _337
REMARK  132  A    between atoms: _336  and  _339
REMARK  133  A    between atoms: _342  and  _344
REMARK  134  A    between atoms: _344  and  _345
REMARK  135  A    between atoms: _344  and  _347
REMARK  136  A    between atoms: _347  and  _348
REMARK  137  A    between atoms: _351  and  _353
REMARK  138  A    between atoms: _353  and  _354
REMARK  139  A    between atoms: _353  and  _356
REMARK  140  A    between atoms: _356  and  _357
REMARK  141  A    between atoms: _357  and  _358
REMARK  142  A    between atoms: _361  and  _363
REMARK  143  A    between atoms: _363  and  _364
REMARK  144  A    between atoms: _367  and  _369
REMARK  145  A    between atoms: _369  and  _370
REMARK  146  A    between atoms: _369  and  _372
REMARK  147  A    between atoms: _372  and  _373
REMARK  148  A    between atoms: _376  and  _378
REMARK  149  A    between atoms: _378  and  _379
REMARK  150  A    between atoms: _378  and  _381
REMARK  151  A    between atoms: _381  and  _382
REMARK  152  A    between atoms: _382  and  _383
REMARK  153  A    between atoms: _386  and  _388
REMARK  154  A    between atoms: _388  and  _389
REMARK  155  A    between atoms: _388  and  _391
REMARK  156  A    between atoms: _391  and  _392
REMARK  157  A    between atoms: _397  and  _399
REMARK  158  A    between atoms: _399  and  _400
REMARK  159  A    between atoms: _402  and  _404
REMARK  160  A    between atoms: _404  and  _405
REMARK  161  A    between atoms: _404  and  _407
REMARK  162  A    between atoms: _410  and  _412
REMARK  163  A    between atoms: _412  and  _413
REMARK  164  A    between atoms: _416  and  _418
REMARK  165  A    between atoms: _418  and  _419
REMARK  166  A    between atoms: _418  and  _421
REMARK  167  A    between atoms: _421  and  _422
REMARK  168  A    between atoms: _427  and  _429
REMARK  169  A    between atoms: _429  and  _430
REMARK  170  A    between atoms: _429  and  _432
REMARK  171  A    between atoms: _432  and  _433
REMARK  172  A    between atoms: _433  and  _434
REMARK  173  A    between atoms: _434  and  _435
REMARK  174  A    between atoms: _435  and  _436
REMARK  175  A    between atoms: _440  and  _442
REMARK  176  A    between atoms: _442  and  _443
REMARK  177  A    between atoms: _442  and  _445
REMARK  178  A    between atoms: _445  and  _446
REMARK  179  A    between atoms: _449  and  _451
REMARK  180  A    between atoms: _451  and  _452
REMARK  181  A    between atoms: _451  and  _454
REMARK  182  A    between atoms: _454  and  _455
REMARK  183  A    between atoms: _460  and  _462
REMARK  184  A    between atoms: _462  and  _463
REMARK  185  A    between atoms: _465  and  _467
REMARK  186  A    between atoms: _467  and  _468
REMARK  187  A    between atoms: _467  and  _470
REMARK  188  A    between atoms: _470  and  _471
REMARK  189  A    between atoms: _471  and  _472
REMARK  190  A    between atoms: _472  and  _473
REMARK  191  A    between atoms: _473  and  _474
REMARK  192  A    between atoms: _478  and  _480
REMARK  193  A    between atoms: _480  and  _481
REMARK  194  A    between atoms: _480  and  _483
REMARK  195  A    between atoms: _483  and  _484
REMARK  196  A    between atoms: _484  and  _485
REMARK  197  A    between atoms: _485  and  _486
REMARK  198  A    between atoms: _495  and  _497
REMARK  199  A    between atoms: _497  and  _498
REMARK  200  A    between atoms: _497  and  _500
REMARK  201  A    between atoms: _500  and  _501
REMARK  202  A    between atoms: _506  and  _507
REMARK  203  A    between atoms: _509  and  _511
REMARK  204  A    between atoms: _511  and  _512
REMARK  205  A    between atoms: _511  and  _514
REMARK  206  A    between atoms: _514  and  _515
REMARK  207  A    between atoms: _515  and  _516
REMARK  208  A    between atoms: _516  and  _517
REMARK  209  A    between atoms: _517  and  _518
REMARK  210  A    between atoms: _522  and  _524
REMARK  211  A    between atoms: _524  and  _525
REMARK  212  A    between atoms: _524  and  _527
REMARK  213  A    between atoms: _527  and  _528
REMARK  214  A    between atoms: _530  and  _532
REMARK  215  A    between atoms: _532  and  _533
REMARK  216  A    between atoms: _532  and  _535
REMARK  217  A    between atoms: _535  and  _536
REMARK  218  A    between atoms: _539  and  _541
REMARK  219  A    between atoms: _541  and  _542
REMARK  220  A    between atoms: _541  and  _544
REMARK  221  A    between atoms: _544  and  _545
REMARK  222  A    between atoms: _545  and  _546
REMARK  223  A    between atoms: _549  and  _551
REMARK  224  A    between atoms: _551  and  _552
REMARK  225  A    between atoms: _555  and  _557
REMARK  226  A    between atoms: _557  and  _558
REMARK  227  A    between atoms: _557  and  _560
REMARK  228  A    between atoms: _560  and  _561
REMARK  229  A    between atoms: _563  and  _565
REMARK  230  A    between atoms: _565  and  _566
REMARK  231  A    between atoms: _568  and  _570
REMARK  232  A    between atoms: _570  and  _571
REMARK  233  A    between atoms: _570  and  _573
REMARK  234  A    between atoms: _573  and  _574
REMARK  235  A    between atoms: _577  and  _579
REMARK  236  A    between atoms: _579  and  _580
REMARK  237  A    between atoms: _582  and  _584
REMARK  238  A    between atoms: _584  and  _585
REMARK  239  A    between atoms: _584  and  _587
REMARK  240  A    between atoms: _587  and  _588
REMARK  241  A    between atoms: _593  and  _595
REMARK  242  A    between atoms: _595  and  _596
REMARK  243  A    between atoms: _595  and  _598
REMARK  244  A    between atoms: _598  and  _599
REMARK  245  A    between atoms: _599  and  _600
REMARK  246  A    between atoms: _607  and  _608
REMARK  247  A    between atoms: _608  and  _624
REMARK  248  A    between atoms: _609  and  _611
REMARK  249  A    between atoms: _611  and  _612
REMARK  250  A    between atoms: _612  and  _613
REMARK  251  A    between atoms: _617  and  _619
REMARK  252  A    between atoms: _619  and  _620
REMARK  253  A    between atoms: _619  and  _627
REMARK  254  A    between atoms: _620  and  _621
REMARK  255  A    between atoms: _621  and  _622
REMARK  256  A    between atoms: _622  and  _623
REMARK  257  A    between atoms: _623  and  _624
REMARK  258  A    between atoms: _629  and  _631
REMARK  259  A    between atoms: _631  and  _632
REMARK  260  A    between atoms: _631  and  _634
REMARK  261  A    between atoms: _634  and  _635
REMARK  262  A    between atoms: _638  and  _640
REMARK  263  A    between atoms: _640  and  _641
REMARK  264  A    between atoms: _643  and  _645
REMARK  265  A    between atoms: _645  and  _646
REMARK  266  A    between atoms: _649  and  _651
REMARK  267  A    between atoms: _651  and  _652
REMARK  268  A    between atoms: _651  and  _654
REMARK  269  A    between atoms: _654  and  _655
REMARK  270  A    between atoms: _660  and  _661
REMARK                            x       y       z     vdW  Elec       q    Type
REMARK                         _______ _______ _______ _____ _____    ______ ____
ROOT
ATOM      1  C   ASP A   1      32.883  22.272  15.979  0.00  0.00    +0.239 C 
ATOM      2  N   GLY A   2      33.781  21.724  16.798  0.00  0.00    -0.296 N 
ATOM      3  H   GLY A   2      34.783  21.984  16.696  0.00  0.00    +0.150 HD
ATOM      4  O   ASP A   1      31.685  21.970  15.988  0.00  0.00    -0.274 OA
ENDROOT
BRANCH   1   5
ATOM      5  CA  ASP A   1      33.407  23.301  14.986  0.00  0.00    +0.156 C 
BRANCH   5   6
ATOM      6  N   ASP A   1      32.645  23.242  13.742  0.00  0.00    -0.238 NA
ATOM      7  H   ASP A   1      31.606  23.241  13.793  0.00  0.00    +0.142 HD
ENDBRANCH   5   6
BRANCH   5   8
ATOM      8  CB  ASP A   1      33.313  24.706  15.590  0.00  0.00    +0.140 C 
BRANCH   8   9
ATOM      9  CG  ASP A   1      34.427  24.995  16.582  0.00  0.00    +0.367 C 
ATOM     10  OD2 ASP A   1      34.272  25.938  17.381  0.00  0.00    -0.246 OA
ATOM     11  OD1 ASP A   1      35.454  24.280  16.565  0.00  0.00    -0.246 OA
ENDBRANCH   8   9
ENDBRANCH   5   8
ENDBRANCH   1   5
BRANCH   2  12
ATOM     12  CA  GLY A   2      33.398  20.767  17.837  0.00  0.00    +0.176 C 
BRANCH  12  13
ATOM     13  C   GLY A   2      32.548  19.631  17.303  0.00  0.00    +0.243 C 
ATOM     14  N   ALA A   3      31.497  19.289  18.044  0.00  0.00    -0.298 N 
ATOM     15  H   ALA A   3      31.299  19.821  18.916  0.00  0.00    +0.150 HD
ATOM     16  O   GLY A   2      32.822  19.096  16.231  0.00  0.00    -0.273 OA
BRANCH  14  17
ATOM     17  CA  ALA A   3      30.614  18.188  17.668  0.00  0.00    +0.137 C 
ATOM     18  CB  ALA A   3      29.808  17.716  18.871  0.00  0.00    +0.030 C 
BRANCH  17  19
ATOM     19  C   ALA A   3      29.683  18.523  16.500  0.00  0.00    +0.227 C 
ATOM     20  O   ALA A   3      29.056  17.612  15.942  0.00  0.00    -0.286 OA
ENDBRANCH  17  19
ENDBRANCH  14  17
ENDBRANCH  12  13
ENDBRANCH   2  12
TORSDOF 8
REMARK  Name = ../refined-set-2016/2qrm/2qrm_pocket.pdb
REMARK  270 active torsions:
REMARK  status: ('A' for Active; 'I' for Inactive)
REMARK    1  A    between atoms: _1  and  _3
REMARK    2  A    between atoms: _3  and  _4
REMARK    3  A    between atoms: _3  and  _6
REMARK    4  A    between atoms: _6  and  _7
REMARK    5  A    between atoms: _12  and  _13
REMARK    6  A    between atoms: _15  and  _17
REMARK    7  A    between atoms: _17  and  _18
REMARK    8  A    between atoms: _17  and  _20
REMARK    9  A    between atoms: _20  and  _21
REMARK   10  A    between atoms: _24  and  _26
REMARK   11  A    between atoms: _26  and  _27
REMARK   12  A    between atoms: _26  and  _29
REMARK   13  A    between atoms: _29  and  _30
REMARK   14  A    between atoms: _30  and  _31
REMARK   15  A    between atoms: _34  and  _36
REMARK   16  A    between atoms: _36  and  _37
REMARK   17  A    between atoms: _39  and  _41
REMARK   18  A    between atoms: _41  and  _42
REMARK   19  A    between atoms: _41  and  _44
REMARK   20  A    between atoms: _44  and  _45
REMARK   21  A    between atoms: _50  and  _52
REMARK   22  A    between atoms: _52  and  _53
REMARK   23  A    between atoms: _55  and  _57
REMARK   24  A    between atoms: _57  and  _58
REMARK   25  A    between atoms: _60  and  _62
REMARK   26  A    between atoms: _62  and  _63
REMARK   27  A    between atoms: _62  and  _65
REMARK   28  A    between atoms: _65  and  _66
REMARK   29  A    between atoms: _69  and  _71
REMARK   30  A    between atoms: _71  and  _72
REMARK   31  A    between atoms: _74  and  _76
REMARK   32  A    between atoms: _76  and  _77
REMARK   33  A    between atoms: _76  and  _79
REMARK   34  A    between atoms: _79  and  _80
REMARK   35  A    between atoms: _80  and  _81
REMARK   36  A    between atoms: _81  and  _82
REMARK   37  A    between atoms: _91  and  _93
REMARK   38  A    between atoms: _93  and  _94
REMARK   39  A    between atoms: _93  and  _96
REMARK   40  A    between atoms: _96  and  _97
REMARK   41  A    between atoms: _100  and  _102
REMARK   42  A    between atoms: _102  and  _103
REMARK   43  A    between atoms: _106  and  _108
REMARK   44  A    between atoms: _108  and  _109
REMARK   45  A    between atoms: _108  and  _111
REMARK   46  A    between atoms: _111  and  _112
REMARK   47  A    between atoms: _118  and  _120
REMARK   48  A    between atoms: _120  and  _121
REMARK   49  A    between atoms: _120  and  _123
REMARK   50  A    between atoms: _123  and  _124
REMARK   51  A    between atoms: _129  and  _130
REMARK   52  A    between atoms: _132  and  _134
REMARK   53  A    between atoms: _134  and  _135
REMARK   54  A    between atoms: _134  and  _137
REMARK   55  A    between atoms: _137  and  _138
REMARK   56  A    between atoms: _141  and  _143
REMARK   57  A    between atoms: _143  and  _144
REMARK   58  A    between atoms: _143  and  _146
REMARK   59  A    between atoms: _146  and  _147
REMARK   60  A    between atoms: _152  and  _153
REMARK   61  A    between atoms: _156  and  _157
REMARK   62  A    between atoms: _162  and  _164
REMARK   63  A    between atoms: _164  and  _165
REMARK   64  A    between atoms: _164  and  _167
REMARK   65  A    between atoms: _167  and  _168
REMARK   66  A    between atoms: _173  and  _175
REMARK   67  A    between atoms: _175  and  _176
REMARK   68  A    between atoms: _175  and  _178
REMARK   69  A    between atoms: _178  and  _179
REMARK   70  A    between atoms: _182  and  _184
REMARK   71  A    between atoms: _184  and  _185
REMARK   72  A    between atoms: _184  and  _187
REMARK   73  A    between atoms: _187  and  _188
REMARK   74  A    between atoms: _193  and  _195
REMARK   75  A    between atoms: _195  and  _196
REMARK   76  A    between atoms: _195  and  _198
REMARK   77  A    between atoms: _198  and  _199
REMARK   78  A    between atoms: _205  and  _207
REMARK   79  A    between atoms: _207  and  _208
REMARK   80  A    between atoms: _207  and  _210
REMARK   81  A    between atoms: _210  and  _211
REMARK   82  A    between atoms: _217  and  _219
REMARK   83  A    between atoms: _219  and  _220
REMARK   84  A    between atoms: _219  and  _222
REMARK   85  A    between atoms: _222  and  _223
REMARK   86  A    between atoms: _223  and  _224
REMARK   87  A    between atoms: _227  and  _229
REMARK   88  A    between atoms: _229  and  _230
REMARK   89  A    between atoms: _229  and  _232
REMARK   90  A    between atoms: _232  and  _233
REMARK   91  A    between atoms: _233  and  _234
REMARK   92  A    between atoms: _234  and  _235
REMARK   93  A    between atoms: _244  and  _246
REMARK   94  A    between atoms: _246  and  _247
REMARK   95  A    between atoms: _246  and  _249
REMARK   96  A    between atoms: _249  and  _250
REMARK   97  A    between atoms: _250  and  _251
REMARK   98  A    between atoms: _254  and  _256
REMARK   99  A    between atoms: _256  and  _257
REMARK  100  A    between atoms: _256  and  _259
REMARK  101  A    between atoms: _259  and  _260
REMARK  102  A    between atoms: _265  and  _267
REMARK  103  A    between atoms: _267  and  _268
REMARK  104  A    between atoms: _267  and  _270
REMARK  105  A    between atoms: _270  and  _271
REMARK  106  A    between atoms: _274  and  _276
REMARK  107  A    between atoms: _276  and  _277
REMARK  108  A    between atoms: _276  and  _279
REMARK  109  A    between atoms: _279  and  _280
REMARK  110  A    between atoms: _283  and  _285
REMARK  111  A    between atoms: _285  and  _286
REMARK  112  A    between atoms: _285  and  _288
REMARK  113  A    between atoms: _288  and  _289
REMARK  114  A    between atoms: _294  and  _296
REMARK  115  A    between atoms: _296  and  _297
REMARK  116  A    between atoms: _296  and  _299
REMARK  117  A    between atoms: _299  and  _300
REMARK  118  A    between atoms: _303  and  _305
REMARK  119  A    between atoms: _305  and  _306
REMARK  120  A    between atoms: _305  and  _308
REMARK  121  A    between atoms: _308  and  _309
REMARK  122  A    between atoms: _314  and  _316
REMARK  123  A    between atoms: _316  and  _317
REMARK  124  A    between atoms: _316  and  _319
REMARK  125  A    between atoms: _319  and  _320
REMARK  126  A    between atoms: _325  and  _327
REMARK  127  A    between atoms: _327  and  _328
REMARK  128  A    between atoms: _327  and  _330
REMARK  129  A    between atoms: _330  and  _331
REMARK  130  A    between atoms: _334  and  _336
REMARK  131  A    between atoms: _336  and  _337
REMARK  132  A    between atoms: _336  and  _339
REMARK  133  A    between atoms: _342  and  _344
REMARK  134  A    between atoms: _344  and  _345
REMARK  135  A    between atoms: _344  and  _347
REMARK  136  A    between atoms: _347  and  _348
REMARK  137  A    between atoms: _351  and  _353
REMARK  138  A    between atoms: _353  and  _354
REMARK  139  A    between atoms: _353  and  _356
REMARK  140  A    between atoms: _356  and  _357
REMARK  141  A    between atoms: _357  and  _358
REMARK  142  A    between atoms: _361  and  _363
REMARK  143  A    between atoms: _363  and  _364
REMARK  144  A    between atoms: _367  and  _369
REMARK  145  A    between atoms: _369  and  _370
REMARK  146  A    between atoms: _369  and  _372
REMARK  147  A    between atoms: _372  and  _373
REMARK  148  A    between atoms: _376  and  _378
REMARK  149  A    between atoms: _378  and  _379
REMARK  150  A    between atoms: _378  and  _381
REMARK  151  A    between atoms: _381  and  _382
REMARK  152  A    between atoms: _382  and  _383
REMARK  153  A    between atoms: _386  and  _388
REMARK  154  A    between atoms: _388  and  _389
REMARK  155  A    between atoms: _388  and  _391
REMARK  156  A    between atoms: _391  and  _392
REMARK  157  A    between atoms: _397  and  _399
REMARK  158  A    between atoms: _399  and  _400
REMARK  159  A    between atoms: _402  and  _404
REMARK  160  A    between atoms: _404  and  _405
REMARK  161  A    between atoms: _404  and  _407
REMARK  162  A    between atoms: _410  and  _412
REMARK  163  A    between atoms: _412  and  _413
REMARK  164  A    between atoms: _416  and  _418
REMARK  165  A    between atoms: _418  and  _419
REMARK  166  A    between atoms: _418  and  _421
REMARK  167  A    between atoms: _421  and  _422
REMARK  168  A    between atoms: _427  and  _429
REMARK  169  A    between atoms: _429  and  _430
REMARK  170  A    between atoms: _429  and  _432
REMARK  171  A    between atoms: _432  and  _433
REMARK  172  A    between atoms: _433  and  _434
REMARK  173  A    between atoms: _434  and  _435
REMARK  174  A    between atoms: _435  and  _436
REMARK  175  A    between atoms: _440  and  _442
REMARK  176  A    between atoms: _442  and  _443
REMARK  177  A    between atoms: _442  and  _445
REMARK  178  A    between atoms: _445  and  _446
REMARK  179  A    between atoms: _449  and  _451
REMARK  180  A    between atoms: _451  and  _452
REMARK  181  A    between atoms: _451  and  _454
REMARK  182  A    between atoms: _454  and  _455
REMARK  183  A    between atoms: _460  and  _462
REMARK  184  A    between atoms: _462  and  _463
REMARK  185  A    between atoms: _465  and  _467
REMARK  186  A    between atoms: _467  and  _468
REMARK  187  A    between atoms: _467  and  _470
REMARK  188  A    between atoms: _470  and  _471
REMARK  189  A    between atoms: _471  and  _472
REMARK  190  A    between atoms: _472  and  _473
REMARK  191  A    between atoms: _473  and  _474
REMARK  192  A    between atoms: _478  and  _480
REMARK  193  A    between atoms: _480  and  _481
REMARK  194  A    between atoms: _480  and  _483
REMARK  195  A    between atoms: _483  and  _484
REMARK  196  A    between atoms: _484  and  _485
REMARK  197  A    between atoms: _485  and  _486
REMARK  198  A    between atoms: _495  and  _497
REMARK  199  A    between atoms: _497  and  _498
REMARK  200  A    between atoms: _497  and  _500
REMARK  201  A    between atoms: _500  and  _501
REMARK  202  A    between atoms: _506  and  _507
REMARK  203  A    between atoms: _509  and  _511
REMARK  204  A    between atoms: _511  and  _512
REMARK  205  A    between atoms: _511  and  _514
REMARK  206  A    between atoms: _514  and  _515
REMARK  207  A    between atoms: _515  and  _516
REMARK  208  A    between atoms: _516  and  _517
REMARK  209  A    between atoms: _517  and  _518
REMARK  210  A    between atoms: _522  and  _524
REMARK  211  A    between atoms: _524  and  _525
REMARK  212  A    between atoms: _524  and  _527
REMARK  213  A    between atoms: _527  and  _528
REMARK  214  A    between atoms: _530  and  _532
REMARK  215  A    between atoms: _532  and  _533
REMARK  216  A    between atoms: _532  and  _535
REMARK  217  A    between atoms: _535  and  _536
REMARK  218  A    between atoms: _539  and  _541
REMARK  219  A    between atoms: _541  and  _542
REMARK  220  A    between atoms: _541  and  _544
REMARK  221  A    between atoms: _544  and  _545
REMARK  222  A    between atoms: _545  and  _546
REMARK  223  A    between atoms: _549  and  _551
REMARK  224  A    between atoms: _551  and  _552
REMARK  225  A    between atoms: _555  and  _557
REMARK  226  A    between atoms: _557  and  _558
REMARK  227  A    between atoms: _557  and  _560
REMARK  228  A    between atoms: _560  and  _561
REMARK  229  A    between atoms: _563  and  _565
REMARK  230  A    between atoms: _565  and  _566
REMARK  231  A    between atoms: _568  and  _570
REMARK  232  A    between atoms: _570  and  _571
REMARK  233  A    between atoms: _570  and  _573
REMARK  234  A    between atoms: _573  and  _574
REMARK  235  A    between atoms: _577  and  _579
REMARK  236  A    between atoms: _579  and  _580
REMARK  237  A    between atoms: _582  and  _584
REMARK  238  A    between atoms: _584  and  _585
REMARK  239  A    between atoms: _584  and  _587
REMARK  240  A    between atoms: _587  and  _588
REMARK  241  A    between atoms: _593  and  _595
REMARK  242  A    between atoms: _595  and  _596
REMARK  243  A    between atoms: _595  and  _598
REMARK  244  A    between atoms: _598  and  _599
REMARK  245  A    between atoms: _599  and  _600
REMARK  246  A    between atoms: _607  and  _608
REMARK  247  A    between atoms: _608  and  _624
REMARK  248  A    between atoms: _609  and  _611
REMARK  249  A    between atoms: _611  and  _612
REMARK  250  A    between atoms: _612  and  _613
REMARK  251  A    between atoms: _617  and  _619
REMARK  252  A    between atoms: _619  and  _620
REMARK  253  A    between atoms: _619  and  _627
REMARK  254  A    between atoms: _620  and  _621
REMARK  255  A    between atoms: _621  and  _622
REMARK  256  A    between atoms: _622  and  _623
REMARK  257  A    between atoms: _623  and  _624
REMARK  258  A    between atoms: _629  and  _631
REMARK  259  A    between atoms: _631  and  _632
REMARK  260  A    between atoms: _631  and  _634
REMARK  261  A    between atoms: _634  and  _635
REMARK  262  A    between atoms: _638  and  _640
REMARK  263  A    between atoms: _640  and  _641
REMARK  264  A    between atoms: _643  and  _645
REMARK  265  A    between atoms: _645  and  _646
REMARK  266  A    between atoms: _649  and  _651
REMARK  267  A    between atoms: _651  and  _652
REMARK  268  A    between atoms: _651  and  _654
REMARK  269  A    between atoms: _654  and  _655
REMARK  270  A    between atoms: _660  and  _661
REMARK                            x       y       z     vdW  Elec       q    Type
REMARK                         _______ _______ _______ _____ _____    ______ ____
ROOT
ATOM      1  CG  TYR A   1      34.643   7.648  28.928  0.00  0.00    -0.020 A 
ATOM      2  CD2 TYR A   1      35.792   8.250  29.443  0.00  0.00    -0.001 A 
ATOM      3  CE2 TYR A   1      36.057   9.607  29.226  0.00  0.00    +0.036 A 
ATOM      4  CZ  TYR A   1      35.169  10.368  28.491  0.00  0.00    +0.134 A 
ATOM      5  CE1 TYR A   1      34.014   9.800  27.984  0.00  0.00    +0.036 A 
ATOM      6  CD1 TYR A   1      33.752   8.442  28.209  0.00  0.00    -0.001 A 
ENDROOT
BRANCH   4   7
ATOM      7  OH  TYR A   1      35.426  11.710  28.278  0.00  0.00    -0.506 OA
ATOM      8  HH  TYR A   1      35.478  11.884  27.305  0.00  0.00    +0.292 HD
ENDBRANCH   4   7
BRANCH   1   9
ATOM      9  CB  TYR A   1      34.343   6.185  29.195  0.00  0.00    +0.051 C 
BRANCH   9  10
ATOM     10  CA  TYR A   1      34.890   5.176  28.180  0.00  0.00    +0.137 C 
BRANCH  10  11
ATOM     11  N   TYR A   1      33.981   5.027  27.037  0.00  0.00    -0.239 NA
ATOM     12  H   TYR A   1      33.145   5.642  26.969  0.00  0.00    +0.142 HD
ENDBRANCH  10  11
BRANCH  10  13
ATOM     13  C   TYR A   1      35.071   3.834  28.894  0.00  0.00    +0.224 C 
ATOM     14  O   TYR A   1      36.190   3.436  29.207  0.00  0.00    -0.287 OA
ENDBRANCH  10  13
ENDBRANCH   9  10
ENDBRANCH   1   9
TORSDOF 5
REMARK  Name = ../refined-set-2016/2qrm/2qrm_pocket.pdb
REMARK  270 active torsions:
REMARK  status: ('A' for Active; 'I' for Inactive)
REMARK    1  A    between atoms: _1  and  _3
REMARK    2  A    between atoms: _3  and  _4
REMARK    3  A    between atoms: _3  and  _6
REMARK    4  A    between atoms: _6  and  _7
REMARK    5  A    between atoms: _12  and  _13
REMARK    6  A    between atoms: _15  and  _17
REMARK    7  A    between atoms: _17  and  _18
REMARK    8  A    between atoms: _17  and  _20
REMARK    9  A    between atoms: _20  and  _21
REMARK   10  A    between atoms: _24  and  _26
REMARK   11  A    between atoms: _26  and  _27
REMARK   12  A    between atoms: _26  and  _29
REMARK   13  A    between atoms: _29  and  _30
REMARK   14  A    between atoms: _30  and  _31
REMARK   15  A    between atoms: _34  and  _36
REMARK   16  A    between atoms: _36  and  _37
REMARK   17  A    between atoms: _39  and  _41
REMARK   18  A    between atoms: _41  and  _42
REMARK   19  A    between atoms: _41  and  _44
REMARK   20  A    between atoms: _44  and  _45
REMARK   21  A    between atoms: _50  and  _52
REMARK   22  A    between atoms: _52  and  _53
REMARK   23  A    between atoms: _55  and  _57
REMARK   24  A    between atoms: _57  and  _58
REMARK   25  A    between atoms: _60  and  _62
REMARK   26  A    between atoms: _62  and  _63
REMARK   27  A    between atoms: _62  and  _65
REMARK   28  A    between atoms: _65  and  _66
REMARK   29  A    between atoms: _69  and  _71
REMARK   30  A    between atoms: _71  and  _72
REMARK   31  A    between atoms: _74  and  _76
REMARK   32  A    between atoms: _76  and  _77
REMARK   33  A    between atoms: _76  and  _79
REMARK   34  A    between atoms: _79  and  _80
REMARK   35  A    between atoms: _80  and  _81
REMARK   36  A    between atoms: _81  and  _82
REMARK   37  A    between atoms: _91  and  _93
REMARK   38  A    between atoms: _93  and  _94
REMARK   39  A    between atoms: _93  and  _96
REMARK   40  A    between atoms: _96  and  _97
REMARK   41  A    between atoms: _100  and  _102
REMARK   42  A    between atoms: _102  and  _103
REMARK   43  A    between atoms: _106  and  _108
REMARK   44  A    between atoms: _108  and  _109
REMARK   45  A    between atoms: _108  and  _111
REMARK   46  A    between atoms: _111  and  _112
REMARK   47  A    between atoms: _118  and  _120
REMARK   48  A    between atoms: _120  and  _121
REMARK   49  A    between atoms: _120  and  _123
REMARK   50  A    between atoms: _123  and  _124
REMARK   51  A    between atoms: _129  and  _130
REMARK   52  A    between atoms: _132  and  _134
REMARK   53  A    between atoms: _134  and  _135
REMARK   54  A    between atoms: _134  and  _137
REMARK   55  A    between atoms: _137  and  _138
REMARK   56  A    between atoms: _141  and  _143
REMARK   57  A    between atoms: _143  and  _144
REMARK   58  A    between atoms: _143  and  _146
REMARK   59  A    between atoms: _146  and  _147
REMARK   60  A    between atoms: _152  and  _153
REMARK   61  A    between atoms: _156  and  _157
REMARK   62  A    between atoms: _162  and  _164
REMARK   63  A    between atoms: _164  and  _165
REMARK   64  A    between atoms: _164  and  _167
REMARK   65  A    between atoms: _167  and  _168
REMARK   66  A    between atoms: _173  and  _175
REMARK   67  A    between atoms: _175  and  _176
REMARK   68  A    between atoms: _175  and  _178
REMARK   69  A    between atoms: _178  and  _179
REMARK   70  A    between atoms: _182  and  _184
REMARK   71  A    between atoms: _184  and  _185
REMARK   72  A    between atoms: _184  and  _187
REMARK   73  A    between atoms: _187  and  _188
REMARK   74  A    between atoms: _193  and  _195
REMARK   75  A    between atoms: _195  and  _196
REMARK   76  A    between atoms: _195  and  _198
REMARK   77  A    between atoms: _198  and  _199
REMARK   78  A    between atoms: _205  and  _207
REMARK   79  A    between atoms: _207  and  _208
REMARK   80  A    between atoms: _207  and  _210
REMARK   81  A    between atoms: _210  and  _211
REMARK   82  A    between atoms: _217  and  _219
REMARK   83  A    between atoms: _219  and  _220
REMARK   84  A    between atoms: _219  and  _222
REMARK   85  A    between atoms: _222  and  _223
REMARK   86  A    between atoms: _223  and  _224
REMARK   87  A    between atoms: _227  and  _229
REMARK   88  A    between atoms: _229  and  _230
REMARK   89  A    between atoms: _229  and  _232
REMARK   90  A    between atoms: _232  and  _233
REMARK   91  A    between atoms: _233  and  _234
REMARK   92  A    between atoms: _234  and  _235
REMARK   93  A    between atoms: _244  and  _246
REMARK   94  A    between atoms: _246  and  _247
REMARK   95  A    between atoms: _246  and  _249
REMARK   96  A    between atoms: _249  and  _250
REMARK   97  A    between atoms: _250  and  _251
REMARK   98  A    between atoms: _254  and  _256
REMARK   99  A    between atoms: _256  and  _257
REMARK  100  A    between atoms: _256  and  _259
REMARK  101  A    between atoms: _259  and  _260
REMARK  102  A    between atoms: _265  and  _267
REMARK  103  A    between atoms: _267  and  _268
REMARK  104  A    between atoms: _267  and  _270
REMARK  105  A    between atoms: _270  and  _271
REMARK  106  A    between atoms: _274  and  _276
REMARK  107  A    between atoms: _276  and  _277
REMARK  108  A    between atoms: _276  and  _279
REMARK  109  A    between atoms: _279  and  _280
REMARK  110  A    between atoms: _283  and  _285
REMARK  111  A    between atoms: _285  and  _286
REMARK  112  A    between atoms: _285  and  _288
REMARK  113  A    between atoms: _288  and  _289
REMARK  114  A    between atoms: _294  and  _296
REMARK  115  A    between atoms: _296  and  _297
REMARK  116  A    between atoms: _296  and  _299
REMARK  117  A    between atoms: _299  and  _300
REMARK  118  A    between atoms: _303  and  _305
REMARK  119  A    between atoms: _305  and  _306
REMARK  120  A    between atoms: _305  and  _308
REMARK  121  A    between atoms: _308  and  _309
REMARK  122  A    between atoms: _314  and  _316
REMARK  123  A    between atoms: _316  and  _317
REMARK  124  A    between atoms: _316  and  _319
REMARK  125  A    between atoms: _319  and  _320
REMARK  126  A    between atoms: _325  and  _327
REMARK  127  A    between atoms: _327  and  _328
REMARK  128  A    between atoms: _327  and  _330
REMARK  129  A    between atoms: _330  and  _331
REMARK  130  A    between atoms: _334  and  _336
REMARK  131  A    between atoms: _336  and  _337
REMARK  132  A    between atoms: _336  and  _339
REMARK  133  A    between atoms: _342  and  _344
REMARK  134  A    between atoms: _344  and  _345
REMARK  135  A    between atoms: _344  and  _347
REMARK  136  A    between atoms: _347  and  _348
REMARK  137  A    between atoms: _351  and  _353
REMARK  138  A    between atoms: _353  and  _354
REMARK  139  A    between atoms: _353  and  _356
REMARK  140  A    between atoms: _356  and  _357
REMARK  141  A    between atoms: _357  and  _358
REMARK  142  A    between atoms: _361  and  _363
REMARK  143  A    between atoms: _363  and  _364
REMARK  144  A    between atoms: _367  and  _369
REMARK  145  A    between atoms: _369  and  _370
REMARK  146  A    between atoms: _369  and  _372
REMARK  147  A    between atoms: _372  and  _373
REMARK  148  A    between atoms: _376  and  _378
REMARK  149  A    between atoms: _378  and  _379
REMARK  150  A    between atoms: _378  and  _381
REMARK  151  A    between atoms: _381  and  _382
REMARK  152  A    between atoms: _382  and  _383
REMARK  153  A    between atoms: _386  and  _388
REMARK  154  A    between atoms: _388  and  _389
REMARK  155  A    between atoms: _388  and  _391
REMARK  156  A    between atoms: _391  and  _392
REMARK  157  A    between atoms: _397  and  _399
REMARK  158  A    between atoms: _399  and  _400
REMARK  159  A    between atoms: _402  and  _404
REMARK  160  A    between atoms: _404  and  _405
REMARK  161  A    between atoms: _404  and  _407
REMARK  162  A    between atoms: _410  and  _412
REMARK  163  A    between atoms: _412  and  _413
REMARK  164  A    between atoms: _416  and  _418
REMARK  165  A    between atoms: _418  and  _419
REMARK  166  A    between atoms: _418  and  _421
REMARK  167  A    between atoms: _421  and  _422
REMARK  168  A    between atoms: _427  and  _429
REMARK  169  A    between atoms: _429  and  _430
REMARK  170  A    between atoms: _429  and  _432
REMARK  171  A    between atoms: _432  and  _433
REMARK  172  A    between atoms: _433  and  _434
REMARK  173  A    between atoms: _434  and  _435
REMARK  174  A    between atoms: _435  and  _436
REMARK  175  A    between atoms: _440  and  _442
REMARK  176  A    between atoms: _442  and  _443
REMARK  177  A    between atoms: _442  and  _445
REMARK  178  A    between atoms: _445  and  _446
REMARK  179  A    between atoms: _449  and  _451
REMARK  180  A    between atoms: _451  and  _452
REMARK  181  A    between atoms: _451  and  _454
REMARK  182  A    between atoms: _454  and  _455
REMARK  183  A    between atoms: _460  and  _462
REMARK  184  A    between atoms: _462  and  _463
REMARK  185  A    between atoms: _465  and  _467
REMARK  186  A    between atoms: _467  and  _468
REMARK  187  A    between atoms: _467  and  _470
REMARK  188  A    between atoms: _470  and  _471
REMARK  189  A    between atoms: _471  and  _472
REMARK  190  A    between atoms: _472  and  _473
REMARK  191  A    between atoms: _473  and  _474
REMARK  192  A    between atoms: _478  and  _480
REMARK  193  A    between atoms: _480  and  _481
REMARK  194  A    between atoms: _480  and  _483
REMARK  195  A    between atoms: _483  and  _484
REMARK  196  A    between atoms: _484  and  _485
REMARK  197  A    between atoms: _485  and  _486
REMARK  198  A    between atoms: _495  and  _497
REMARK  199  A    between atoms: _497  and  _498
REMARK  200  A    between atoms: _497  and  _500
REMARK  201  A    between atoms: _500  and  _501
REMARK  202  A    between atoms: _506  and  _507
REMARK  203  A    between atoms: _509  and  _511
REMARK  204  A    between atoms: _511  and  _512
REMARK  205  A    between atoms: _511  and  _514
REMARK  206  A    between atoms: _514  and  _515
REMARK  207  A    between atoms: _515  and  _516
REMARK  208  A    between atoms: _516  and  _517
REMARK  209  A    between atoms: _517  and  _518
REMARK  210  A    between atoms: _522  and  _524
REMARK  211  A    between atoms: _524  and  _525
REMARK  212  A    between atoms: _524  and  _527
REMARK  213  A    between atoms: _527  and  _528
REMARK  214  A    between atoms: _530  and  _532
REMARK  215  A    between atoms: _532  and  _533
REMARK  216  A    between atoms: _532  and  _535
REMARK  217  A    between atoms: _535  and  _536
REMARK  218  A    between atoms: _539  and  _541
REMARK  219  A    between atoms: _541  and  _542
REMARK  220  A    between atoms: _541  and  _544
REMARK  221  A    between atoms: _544  and  _545
REMARK  222  A    between atoms: _545  and  _546
REMARK  223  A    between atoms: _549  and  _551
REMARK  224  A    between atoms: _551  and  _552
REMARK  225  A    between atoms: _555  and  _557
REMARK  226  A    between atoms: _557  and  _558
REMARK  227  A    between atoms: _557  and  _560
REMARK  228  A    between atoms: _560  and  _561
REMARK  229  A    between atoms: _563  and  _565
REMARK  230  A    between atoms: _565  and  _566
REMARK  231  A    between atoms: _568  and  _570
REMARK  232  A    between atoms: _570  and  _571
REMARK  233  A    between atoms: _570  and  _573
REMARK  234  A    between atoms: _573  and  _574
REMARK  235  A    between atoms: _577  and  _579
REMARK  236  A    between atoms: _579  and  _580
REMARK  237  A    between atoms: _582  and  _584
REMARK  238  A    between atoms: _584  and  _585
REMARK  239  A    between atoms: _584  and  _587
REMARK  240  A    between atoms: _587  and  _588
REMARK  241  A    between atoms: _593  and  _595
REMARK  242  A    between atoms: _595  and  _596
REMARK  243  A    between atoms: _595  and  _598
REMARK  244  A    between atoms: _598  and  _599
REMARK  245  A    between atoms: _599  and  _600
REMARK  246  A    between atoms: _607  and  _608
REMARK  247  A    between atoms: _608  and  _624
REMARK  248  A    between atoms: _609  and  _611
REMARK  249  A    between atoms: _611  and  _612
REMARK  250  A    between atoms: _612  and  _613
REMARK  251  A    between atoms: _617  and  _619
REMARK  252  A    between atoms: _619  and  _620
REMARK  253  A    between atoms: _619  and  _627
REMARK  254  A    between atoms: _620  and  _621
REMARK  255  A    between atoms: _621  and  _622
REMARK  256  A    between atoms: _622  and  _623
REMARK  257  A    between atoms: _623  and  _624
REMARK  258  A    between atoms: _629  and  _631
REMARK  259  A    between atoms: _631  and  _632
REMARK  260  A    between atoms: _631  and  _634
REMARK  261  A    between atoms: _634  and  _635
REMARK  262  A    between atoms: _638  and  _640
REMARK  263  A    between atoms: _640  and  _641
REMARK  264  A    between atoms: _643  and  _645
REMARK  265  A    between atoms: _645  and  _646
REMARK  266  A    between atoms: _649  and  _651
REMARK  267  A    between atoms: _651  and  _652
REMARK  268  A    between atoms: _651  and  _654
REMARK  269  A    between atoms: _654  and  _655
REMARK  270  A    between atoms: _660  and  _661
REMARK                            x       y       z     vdW  Elec       q    Type
REMARK                         _______ _______ _______ _____ _____    ______ ____
ROOT
ATOM      1  O   HOH     1      35.452  26.342  42.370  0.00  0.00    +0.000 OA
ENDROOT
TORSDOF 0
REMARK  Name = ../refined-set-2016/2qrm/2qrm_pocket.pdb
REMARK  270 active torsions:
REMARK  status: ('A' for Active; 'I' for Inactive)
REMARK    1  A    between atoms: _1  and  _3
REMARK    2  A    between atoms: _3  and  _4
REMARK    3  A    between atoms: _3  and  _6
REMARK    4  A    between atoms: _6  and  _7
REMARK    5  A    between atoms: _12  and  _13
REMARK    6  A    between atoms: _15  and  _17
REMARK    7  A    between atoms: _17  and  _18
REMARK    8  A    between atoms: _17  and  _20
REMARK    9  A    between atoms: _20  and  _21
REMARK   10  A    between atoms: _24  and  _26
REMARK   11  A    between atoms: _26  and  _27
REMARK   12  A    between atoms: _26  and  _29
REMARK   13  A    between atoms: _29  and  _30
REMARK   14  A    between atoms: _30  and  _31
REMARK   15  A    between atoms: _34  and  _36
REMARK   16  A    between atoms: _36  and  _37
REMARK   17  A    between atoms: _39  and  _41
REMARK   18  A    between atoms: _41  and  _42
REMARK   19  A    between atoms: _41  and  _44
REMARK   20  A    between atoms: _44  and  _45
REMARK   21  A    between atoms: _50  and  _52
REMARK   22  A    between atoms: _52  and  _53
REMARK   23  A    between atoms: _55  and  _57
REMARK   24  A    between atoms: _57  and  _58
REMARK   25  A    between atoms: _60  and  _62
REMARK   26  A    between atoms: _62  and  _63
REMARK   27  A    between atoms: _62  and  _65
REMARK   28  A    between atoms: _65  and  _66
REMARK   29  A    between atoms: _69  and  _71
REMARK   30  A    between atoms: _71  and  _72
REMARK   31  A    between atoms: _74  and  _76
REMARK   32  A    between atoms: _76  and  _77
REMARK   33  A    between atoms: _76  and  _79
REMARK   34  A    between atoms: _79  and  _80
REMARK   35  A    between atoms: _80  and  _81
REMARK   36  A    between atoms: _81  and  _82
REMARK   37  A    between atoms: _91  and  _93
REMARK   38  A    between atoms: _93  and  _94
REMARK   39  A    between atoms: _93  and  _96
REMARK   40  A    between atoms: _96  and  _97
REMARK   41  A    between atoms: _100  and  _102
REMARK   42  A    between atoms: _102  and  _103
REMARK   43  A    between atoms: _106  and  _108
REMARK   44  A    between atoms: _108  and  _109
REMARK   45  A    between atoms: _108  and  _111
REMARK   46  A    between atoms: _111  and  _112
REMARK   47  A    between atoms: _118  and  _120
REMARK   48  A    between atoms: _120  and  _121
REMARK   49  A    between atoms: _120  and  _123
REMARK   50  A    between atoms: _123  and  _124
REMARK   51  A    between atoms: _129  and  _130
REMARK   52  A    between atoms: _132  and  _134
REMARK   53  A    between atoms: _134  and  _135
REMARK   54  A    between atoms: _134  and  _137
REMARK   55  A    between atoms: _137  and  _138
REMARK   56  A    between atoms: _141  and  _143
REMARK   57  A    between atoms: _143  and  _144
REMARK   58  A    between atoms: _143  and  _146
REMARK   59  A    between atoms: _146  and  _147
REMARK   60  A    between atoms: _152  and  _153
REMARK   61  A    between atoms: _156  and  _157
REMARK   62  A    between atoms: _162  and  _164
REMARK   63  A    between atoms: _164  and  _165
REMARK   64  A    between atoms: _164  and  _167
REMARK   65  A    between atoms: _167  and  _168
REMARK   66  A    between atoms: _173  and  _175
REMARK   67  A    between atoms: _175  and  _176
REMARK   68  A    between atoms: _175  and  _178
REMARK   69  A    between atoms: _178  and  _179
REMARK   70  A    between atoms: _182  and  _184
REMARK   71  A    between atoms: _184  and  _185
REMARK   72  A    between atoms: _184  and  _187
REMARK   73  A    between atoms: _187  and  _188
REMARK   74  A    between atoms: _193  and  _195
REMARK   75  A    between atoms: _195  and  _196
REMARK   76  A    between atoms: _195  and  _198
REMARK   77  A    between atoms: _198  and  _199
REMARK   78  A    between atoms: _205  and  _207
REMARK   79  A    between atoms: _207  and  _208
REMARK   80  A    between atoms: _207  and  _210
REMARK   81  A    between atoms: _210  and  _211
REMARK   82  A    between atoms: _217  and  _219
REMARK   83  A    between atoms: _219  and  _220
REMARK   84  A    between atoms: _219  and  _222
REMARK   85  A    between atoms: _222  and  _223
REMARK   86  A    between atoms: _223  and  _224
REMARK   87  A    between atoms: _227  and  _229
REMARK   88  A    between atoms: _229  and  _230
REMARK   89  A    between atoms: _229  and  _232
REMARK   90  A    between atoms: _232  and  _233
REMARK   91  A    between atoms: _233  and  _234
REMARK   92  A    between atoms: _234  and  _235
REMARK   93  A    between atoms: _244  and  _246
REMARK   94  A    between atoms: _246  and  _247
REMARK   95  A    between atoms: _246  and  _249
REMARK   96  A    between atoms: _249  and  _250
REMARK   97  A    between atoms: _250  and  _251
REMARK   98  A    between atoms: _254  and  _256
REMARK   99  A    between atoms: _256  and  _257
REMARK  100  A    between atoms: _256  and  _259
REMARK  101  A    between atoms: _259  and  _260
REMARK  102  A    between atoms: _265  and  _267
REMARK  103  A    between atoms: _267  and  _268
REMARK  104  A    between atoms: _267  and  _270
REMARK  105  A    between atoms: _270  and  _271
REMARK  106  A    between atoms: _274  and  _276
REMARK  107  A    between atoms: _276  and  _277
REMARK  108  A    between atoms: _276  and  _279
REMARK  109  A    between atoms: _279  and  _280
REMARK  110  A    between atoms: _283  and  _285
REMARK  111  A    between atoms: _285  and  _286
REMARK  112  A    between atoms: _285  and  _288
REMARK  113  A    between atoms: _288  and  _289
REMARK  114  A    between atoms: _294  and  _296
REMARK  115  A    between atoms: _296  and  _297
REMARK  116  A    between atoms: _296  and  _299
REMARK  117  A    between atoms: _299  and  _300
REMARK  118  A    between atoms: _303  and  _305
REMARK  119  A    between atoms: _305  and  _306
REMARK  120  A    between atoms: _305  and  _308
REMARK  121  A    between atoms: _308  and  _309
REMARK  122  A    between atoms: _314  and  _316
REMARK  123  A    between atoms: _316  and  _317
REMARK  124  A    between atoms: _316  and  _319
REMARK  125  A    between atoms: _319  and  _320
REMARK  126  A    between atoms: _325  and  _327
REMARK  127  A    between atoms: _327  and  _328
REMARK  128  A    between atoms: _327  and  _330
REMARK  129  A    between atoms: _330  and  _331
REMARK  130  A    between atoms: _334  and  _336
REMARK  131  A    between atoms: _336  and  _337
REMARK  132  A    between atoms: _336  and  _339
REMARK  133  A    between atoms: _342  and  _344
REMARK  134  A    between atoms: _344  and  _345
REMARK  135  A    between atoms: _344  and  _347
REMARK  136  A    between atoms: _347  and  _348
REMARK  137  A    between atoms: _351  and  _353
REMARK  138  A    between atoms: _353  and  _354
REMARK  139  A    between atoms: _353  and  _356
REMARK  140  A    between atoms: _356  and  _357
REMARK  141  A    between atoms: _357  and  _358
REMARK  142  A    between atoms: _361  and  _363
REMARK  143  A    between atoms: _363  and  _364
REMARK  144  A    between atoms: _367  and  _369
REMARK  145  A    between atoms: _369  and  _370
REMARK  146  A    between atoms: _369  and  _372
REMARK  147  A    between atoms: _372  and  _373
REMARK  148  A    between atoms: _376  and  _378
REMARK  149  A    between atoms: _378  and  _379
REMARK  150  A    between atoms: _378  and  _381
REMARK  151  A    between atoms: _381  and  _382
REMARK  152  A    between atoms: _382  and  _383
REMARK  153  A    between atoms: _386  and  _388
REMARK  154  A    between atoms: _388  and  _389
REMARK  155  A    between atoms: _388  and  _391
REMARK  156  A    between atoms: _391  and  _392
REMARK  157  A    between atoms: _397  and  _399
REMARK  158  A    between atoms: _399  and  _400
REMARK  159  A    between atoms: _402  and  _404
REMARK  160  A    between atoms: _404  and  _405
REMARK  161  A    between atoms: _404  and  _407
REMARK  162  A    between atoms: _410  and  _412
REMARK  163  A    between atoms: _412  and  _413
REMARK  164  A    between atoms: _416  and  _418
REMARK  165  A    between atoms: _418  and  _419
REMARK  166  A    between atoms: _418  and  _421
REMARK  167  A    between atoms: _421  and  _422
REMARK  168  A    between atoms: _427  and  _429
REMARK  169  A    between atoms: _429  and  _430
REMARK  170  A    between atoms: _429  and  _432
REMARK  171  A    between atoms: _432  and  _433
REMARK  172  A    between atoms: _433  and  _434
REMARK  173  A    between atoms: _434  and  _435
REMARK  174  A    between atoms: _435  and  _436
REMARK  175  A    between atoms: _440  and  _442
REMARK  176  A    between atoms: _442  and  _443
REMARK  177  A    between atoms: _442  and  _445
REMARK  178  A    between atoms: _445  and  _446
REMARK  179  A    between atoms: _449  and  _451
REMARK  180  A    between atoms: _451  and  _452
REMARK  181  A    between atoms: _451  and  _454
REMARK  182  A    between atoms: _454  and  _455
REMARK  183  A    between atoms: _460  and  _462
REMARK  184  A    between atoms: _462  and  _463
REMARK  185  A    between atoms: _465  and  _467
REMARK  186  A    between atoms: _467  and  _468
REMARK  187  A    between atoms: _467  and  _470
REMARK  188  A    between atoms: _470  and  _471
REMARK  189  A    between atoms: _471  and  _472
REMARK  190  A    between atoms: _472  and  _473
REMARK  191  A    between atoms: _473  and  _474
REMARK  192  A    between atoms: _478  and  _480
REMARK  193  A    between atoms: _480  and  _481
REMARK  194  A    between atoms: _480  and  _483
REMARK  195  A    between atoms: _483  and  _484
REMARK  196  A    between atoms: _484  and  _485
REMARK  197  A    between atoms: _485  and  _486
REMARK  198  A    between atoms: _495  and  _497
REMARK  199  A    between atoms: _497  and  _498
REMARK  200  A    between atoms: _497  and  _500
REMARK  201  A    between atoms: _500  and  _501
REMARK  202  A    between atoms: _506  and  _507
REMARK  203  A    between atoms: _509  and  _511
REMARK  204  A    between atoms: _511  and  _512
REMARK  205  A    between atoms: _511  and  _514
REMARK  206  A    between atoms: _514  and  _515
REMARK  207  A    between atoms: _515  and  _516
REMARK  208  A    between atoms: _516  and  _517
REMARK  209  A    between atoms: _517  and  _518
REMARK  210  A    between atoms: _522  and  _524
REMARK  211  A    between atoms: _524  and  _525
REMARK  212  A    between atoms: _524  and  _527
REMARK  213  A    between atoms: _527  and  _528
REMARK  214  A    between atoms: _530  and  _532
REMARK  215  A    between atoms: _532  and  _533
REMARK  216  A    between atoms: _532  and  _535
REMARK  217  A    between atoms: _535  and  _536
REMARK  218  A    between atoms: _539  and  _541
REMARK  219  A    between atoms: _541  and  _542
REMARK  220  A    between atoms: _541  and  _544
REMARK  221  A    between atoms: _544  and  _545
REMARK  222  A    between atoms: _545  and  _546
REMARK  223  A    between atoms: _549  and  _551
REMARK  224  A    between atoms: _551  and  _552
REMARK  225  A    between atoms: _555  and  _557
REMARK  226  A    between atoms: _557  and  _558
REMARK  227  A    between atoms: _557  and  _560
REMARK  228  A    between atoms: _560  and  _561
REMARK  229  A    between atoms: _563  and  _565
REMARK  230  A    between atoms: _565  and  _566
REMARK  231  A    between atoms: _568  and  _570
REMARK  232  A    between atoms: _570  and  _571
REMARK  233  A    between atoms: _570  and  _573
REMARK  234  A    between atoms: _573  and  _574
REMARK  235  A    between atoms: _577  and  _579
REMARK  236  A    between atoms: _579  and  _580
REMARK  237  A    between atoms: _582  and  _584
REMARK  238  A    between atoms: _584  and  _585
REMARK  239  A    between atoms: _584  and  _587
REMARK  240  A    between atoms: _587  and  _588
REMARK  241  A    between atoms: _593  and  _595
REMARK  242  A    between atoms: _595  and  _596
REMARK  243  A    between atoms: _595  and  _598
REMARK  244  A    between atoms: _598  and  _599
REMARK  245  A    between atoms: _599  and  _600
REMARK  246  A    between atoms: _607  and  _608
REMARK  247  A    between atoms: _608  and  _624
REMARK  248  A    between atoms: _609  and  _611
REMARK  249  A    between atoms: _611  and  _612
REMARK  250  A    between atoms: _612  and  _613
REMARK  251  A    between atoms: _617  and  _619
REMARK  252  A    between atoms: _619  and  _620
REMARK  253  A    between atoms: _619  and  _627
REMARK  254  A    between atoms: _620  and  _621
REMARK  255  A    between atoms: _621  and  _622
REMARK  256  A    between atoms: _622  and  _623
REMARK  257  A    between atoms: _623  and  _624
REMARK  258  A    between atoms: _629  and  _631
REMARK  259  A    between atoms: _631  and  _632
REMARK  260  A    between atoms: _631  and  _634
REMARK  261  A    between atoms: _634  and  _635
REMARK  262  A    between atoms: _638  and  _640
REMARK  263  A    between atoms: _640  and  _641
REMARK  264  A    between atoms: _643  and  _645
REMARK  265  A    between atoms: _645  and  _646
REMARK  266  A    between atoms: _649  and  _651
REMARK  267  A    between atoms: _651  and  _652
REMARK  268  A    between atoms: _651  and  _654
REMARK  269  A    between atoms: _654  and  _655
REMARK  270  A    between atoms: _660  and  _661
REMARK                            x       y       z     vdW  Elec       q    Type
REMARK                         _______ _______ _______ _____ _____    ______ ____
ROOT
ATOM      1  O   HOH     1      33.703  12.824  26.408  0.00  0.00    +0.000 OA
ENDROOT
TORSDOF 0
REMARK  Name = ../refined-set-2016/2qrm/2qrm_pocket.pdb
REMARK  270 active torsions:
REMARK  status: ('A' for Active; 'I' for Inactive)
REMARK    1  A    between atoms: _1  and  _3
REMARK    2  A    between atoms: _3  and  _4
REMARK    3  A    between atoms: _3  and  _6
REMARK    4  A    between atoms: _6  and  _7
REMARK    5  A    between atoms: _12  and  _13
REMARK    6  A    between atoms: _15  and  _17
REMARK    7  A    between atoms: _17  and  _18
REMARK    8  A    between atoms: _17  and  _20
REMARK    9  A    between atoms: _20  and  _21
REMARK   10  A    between atoms: _24  and  _26
REMARK   11  A    between atoms: _26  and  _27
REMARK   12  A    between atoms: _26  and  _29
REMARK   13  A    between atoms: _29  and  _30
REMARK   14  A    between atoms: _30  and  _31
REMARK   15  A    between atoms: _34  and  _36
REMARK   16  A    between atoms: _36  and  _37
REMARK   17  A    between atoms: _39  and  _41
REMARK   18  A    between atoms: _41  and  _42
REMARK   19  A    between atoms: _41  and  _44
REMARK   20  A    between atoms: _44  and  _45
REMARK   21  A    between atoms: _50  and  _52
REMARK   22  A    between atoms: _52  and  _53
REMARK   23  A    between atoms: _55  and  _57
REMARK   24  A    between atoms: _57  and  _58
REMARK   25  A    between atoms: _60  and  _62
REMARK   26  A    between atoms: _62  and  _63
REMARK   27  A    between atoms: _62  and  _65
REMARK   28  A    between atoms: _65  and  _66
REMARK   29  A    between atoms: _69  and  _71
REMARK   30  A    between atoms: _71  and  _72
REMARK   31  A    between atoms: _74  and  _76
REMARK   32  A    between atoms: _76  and  _77
REMARK   33  A    between atoms: _76  and  _79
REMARK   34  A    between atoms: _79  and  _80
REMARK   35  A    between atoms: _80  and  _81
REMARK   36  A    between atoms: _81  and  _82
REMARK   37  A    between atoms: _91  and  _93
REMARK   38  A    between atoms: _93  and  _94
REMARK   39  A    between atoms: _93  and  _96
REMARK   40  A    between atoms: _96  and  _97
REMARK   41  A    between atoms: _100  and  _102
REMARK   42  A    between atoms: _102  and  _103
REMARK   43  A    between atoms: _106  and  _108
REMARK   44  A    between atoms: _108  and  _109
REMARK   45  A    between atoms: _108  and  _111
REMARK   46  A    between atoms: _111  and  _112
REMARK   47  A    between atoms: _118  and  _120
REMARK   48  A    between atoms: _120  and  _121
REMARK   49  A    between atoms: _120  and  _123
REMARK   50  A    between atoms: _123  and  _124
REMARK   51  A    between atoms: _129  and  _130
REMARK   52  A    between atoms: _132  and  _134
REMARK   53  A    between atoms: _134  and  _135
REMARK   54  A    between atoms: _134  and  _137
REMARK   55  A    between atoms: _137  and  _138
REMARK   56  A    between atoms: _141  and  _143
REMARK   57  A    between atoms: _143  and  _144
REMARK   58  A    between atoms: _143  and  _146
REMARK   59  A    between atoms: _146  and  _147
REMARK   60  A    between atoms: _152  and  _153
REMARK   61  A    between atoms: _156  and  _157
REMARK   62  A    between atoms: _162  and  _164
REMARK   63  A    between atoms: _164  and  _165
REMARK   64  A    between atoms: _164  and  _167
REMARK   65  A    between atoms: _167  and  _168
REMARK   66  A    between atoms: _173  and  _175
REMARK   67  A    between atoms: _175  and  _176
REMARK   68  A    between atoms: _175  and  _178
REMARK   69  A    between atoms: _178  and  _179
REMARK   70  A    between atoms: _182  and  _184
REMARK   71  A    between atoms: _184  and  _185
REMARK   72  A    between atoms: _184  and  _187
REMARK   73  A    between atoms: _187  and  _188
REMARK   74  A    between atoms: _193  and  _195
REMARK   75  A    between atoms: _195  and  _196
REMARK   76  A    between atoms: _195  and  _198
REMARK   77  A    between atoms: _198  and  _199
REMARK   78  A    between atoms: _205  and  _207
REMARK   79  A    between atoms: _207  and  _208
REMARK   80  A    between atoms: _207  and  _210
REMARK   81  A    between atoms: _210  and  _211
REMARK   82  A    between atoms: _217  and  _219
REMARK   83  A    between atoms: _219  and  _220
REMARK   84  A    between atoms: _219  and  _222
REMARK   85  A    between atoms: _222  and  _223
REMARK   86  A    between atoms: _223  and  _224
REMARK   87  A    between atoms: _227  and  _229
REMARK   88  A    between atoms: _229  and  _230
REMARK   89  A    between atoms: _229  and  _232
REMARK   90  A    between atoms: _232  and  _233
REMARK   91  A    between atoms: _233  and  _234
REMARK   92  A    between atoms: _234  and  _235
REMARK   93  A    between atoms: _244  and  _246
REMARK   94  A    between atoms: _246  and  _247
REMARK   95  A    between atoms: _246  and  _249
REMARK   96  A    between atoms: _249  and  _250
REMARK   97  A    between atoms: _250  and  _251
REMARK   98  A    between atoms: _254  and  _256
REMARK   99  A    between atoms: _256  and  _257
REMARK  100  A    between atoms: _256  and  _259
REMARK  101  A    between atoms: _259  and  _260
REMARK  102  A    between atoms: _265  and  _267
REMARK  103  A    between atoms: _267  and  _268
REMARK  104  A    between atoms: _267  and  _270
REMARK  105  A    between atoms: _270  and  _271
REMARK  106  A    between atoms: _274  and  _276
REMARK  107  A    between atoms: _276  and  _277
REMARK  108  A    between atoms: _276  and  _279
REMARK  109  A    between atoms: _279  and  _280
REMARK  110  A    between atoms: _283  and  _285
REMARK  111  A    between atoms: _285  and  _286
REMARK  112  A    between atoms: _285  and  _288
REMARK  113  A    between atoms: _288  and  _289
REMARK  114  A    between atoms: _294  and  _296
REMARK  115  A    between atoms: _296  and  _297
REMARK  116  A    between atoms: _296  and  _299
REMARK  117  A    between atoms: _299  and  _300
REMARK  118  A    between atoms: _303  and  _305
REMARK  119  A    between atoms: _305  and  _306
REMARK  120  A    between atoms: _305  and  _308
REMARK  121  A    between atoms: _308  and  _309
REMARK  122  A    between atoms: _314  and  _316
REMARK  123  A    between atoms: _316  and  _317
REMARK  124  A    between atoms: _316  and  _319
REMARK  125  A    between atoms: _319  and  _320
REMARK  126  A    between atoms: _325  and  _327
REMARK  127  A    between atoms: _327  and  _328
REMARK  128  A    between atoms: _327  and  _330
REMARK  129  A    between atoms: _330  and  _331
REMARK  130  A    between atoms: _334  and  _336
REMARK  131  A    between atoms: _336  and  _337
REMARK  132  A    between atoms: _336  and  _339
REMARK  133  A    between atoms: _342  and  _344
REMARK  134  A    between atoms: _344  and  _345
REMARK  135  A    between atoms: _344  and  _347
REMARK  136  A    between atoms: _347  and  _348
REMARK  137  A    between atoms: _351  and  _353
REMARK  138  A    between atoms: _353  and  _354
REMARK  139  A    between atoms: _353  and  _356
REMARK  140  A    between atoms: _356  and  _357
REMARK  141  A    between atoms: _357  and  _358
REMARK  142  A    between atoms: _361  and  _363
REMARK  143  A    between atoms: _363  and  _364
REMARK  144  A    between atoms: _367  and  _369
REMARK  145  A    between atoms: _369  and  _370
REMARK  146  A    between atoms: _369  and  _372
REMARK  147  A    between atoms: _372  and  _373
REMARK  148  A    between atoms: _376  and  _378
REMARK  149  A    between atoms: _378  and  _379
REMARK  150  A    between atoms: _378  and  _381
REMARK  151  A    between atoms: _381  and  _382
REMARK  152  A    between atoms: _382  and  _383
REMARK  153  A    between atoms: _386  and  _388
REMARK  154  A    between atoms: _388  and  _389
REMARK  155  A    between atoms: _388  and  _391
REMARK  156  A    between atoms: _391  and  _392
REMARK  157  A    between atoms: _397  and  _399
REMARK  158  A    between atoms: _399  and  _400
REMARK  159  A    between atoms: _402  and  _404
REMARK  160  A    between atoms: _404  and  _405
REMARK  161  A    between atoms: _404  and  _407
REMARK  162  A    between atoms: _410  and  _412
REMARK  163  A    between atoms: _412  and  _413
REMARK  164  A    between atoms: _416  and  _418
REMARK  165  A    between atoms: _418  and  _419
REMARK  166  A    between atoms: _418  and  _421
REMARK  167  A    between atoms: _421  and  _422
REMARK  168  A    between atoms: _427  and  _429
REMARK  169  A    between atoms: _429  and  _430
REMARK  170  A    between atoms: _429  and  _432
REMARK  171  A    between atoms: _432  and  _433
REMARK  172  A    between atoms: _433  and  _434
REMARK  173  A    between atoms: _434  and  _435
REMARK  174  A    between atoms: _435  and  _436
REMARK  175  A    between atoms: _440  and  _442
REMARK  176  A    between atoms: _442  and  _443
REMARK  177  A    between atoms: _442  and  _445
REMARK  178  A    between atoms: _445  and  _446
REMARK  179  A    between atoms: _449  and  _451
REMARK  180  A    between atoms: _451  and  _452
REMARK  181  A    between atoms: _451  and  _454
REMARK  182  A    between atoms: _454  and  _455
REMARK  183  A    between atoms: _460  and  _462
REMARK  184  A    between atoms: _462  and  _463
REMARK  185  A    between atoms: _465  and  _467
REMARK  186  A    between atoms: _467  and  _468
REMARK  187  A    between atoms: _467  and  _470
REMARK  188  A    between atoms: _470  and  _471
REMARK  189  A    between atoms: _471  and  _472
REMARK  190  A    between atoms: _472  and  _473
REMARK  191  A    between atoms: _473  and  _474
REMARK  192  A    between atoms: _478  and  _480
REMARK  193  A    between atoms: _480  and  _481
REMARK  194  A    between atoms: _480  and  _483
REMARK  195  A    between atoms: _483  and  _484
REMARK  196  A    between atoms: _484  and  _485
REMARK  197  A    between atoms: _485  and  _486
REMARK  198  A    between atoms: _495  and  _497
REMARK  199  A    between atoms: _497  and  _498
REMARK  200  A    between atoms: _497  and  _500
REMARK  201  A    between atoms: _500  and  _501
REMARK  202  A    between atoms: _506  and  _507
REMARK  203  A    between atoms: _509  and  _511
REMARK  204  A    between atoms: _511  and  _512
REMARK  205  A    between atoms: _511  and  _514
REMARK  206  A    between atoms: _514  and  _515
REMARK  207  A    between atoms: _515  and  _516
REMARK  208  A    between atoms: _516  and  _517
REMARK  209  A    between atoms: _517  and  _518
REMARK  210  A    between atoms: _522  and  _524
REMARK  211  A    between atoms: _524  and  _525
REMARK  212  A    between atoms: _524  and  _527
REMARK  213  A    between atoms: _527  and  _528
REMARK  214  A    between atoms: _530  and  _532
REMARK  215  A    between atoms: _532  and  _533
REMARK  216  A    between atoms: _532  and  _535
REMARK  217  A    between atoms: _535  and  _536
REMARK  218  A    between atoms: _539  and  _541
REMARK  219  A    between atoms: _541  and  _542
REMARK  220  A    between atoms: _541  and  _544
REMARK  221  A    between atoms: _544  and  _545
REMARK  222  A    between atoms: _545  and  _546
REMARK  223  A    between atoms: _549  and  _551
REMARK  224  A    between atoms: _551  and  _552
REMARK  225  A    between atoms: _555  and  _557
REMARK  226  A    between atoms: _557  and  _558
REMARK  227  A    between atoms: _557  and  _560
REMARK  228  A    between atoms: _560  and  _561
REMARK  229  A    between atoms: _563  and  _565
REMARK  230  A    between atoms: _565  and  _566
REMARK  231  A    between atoms: _568  and  _570
REMARK  232  A    between atoms: _570  and  _571
REMARK  233  A    between atoms: _570  and  _573
REMARK  234  A    between atoms: _573  and  _574
REMARK  235  A    between atoms: _577  and  _579
REMARK  236  A    between atoms: _579  and  _580
REMARK  237  A    between atoms: _582  and  _584
REMARK  238  A    between atoms: _584  and  _585
REMARK  239  A    between atoms: _584  and  _587
REMARK  240  A    between atoms: _587  and  _588
REMARK  241  A    between atoms: _593  and  _595
REMARK  242  A    between atoms: _595  and  _596
REMARK  243  A    between atoms: _595  and  _598
REMARK  244  A    between atoms: _598  and  _599
REMARK  245  A    between atoms: _599  and  _600
REMARK  246  A    between atoms: _607  and  _608
REMARK  247  A    between atoms: _608  and  _624
REMARK  248  A    between atoms: _609  and  _611
REMARK  249  A    between atoms: _611  and  _612
REMARK  250  A    between atoms: _612  and  _613
REMARK  251  A    between atoms: _617  and  _619
REMARK  252  A    between atoms: _619  and  _620
REMARK  253  A    between atoms: _619  and  _627
REMARK  254  A    between atoms: _620  and  _621
REMARK  255  A    between atoms: _621  and  _622
REMARK  256  A    between atoms: _622  and  _623
REMARK  257  A    between atoms: _623  and  _624
REMARK  258  A    between atoms: _629  and  _631
REMARK  259  A    between atoms: _631  and  _632
REMARK  260  A    between atoms: _631  and  _634
REMARK  261  A    between atoms: _634  and  _635
REMARK  262  A    between atoms: _638  and  _640
REMARK  263  A    between atoms: _640  and  _641
REMARK  264  A    between atoms: _643  and  _645
REMARK  265  A    between atoms: _645  and  _646
REMARK  266  A    between atoms: _649  and  _651
REMARK  267  A    between atoms: _651  and  _652
REMARK  268  A    between atoms: _651  and  _654
REMARK  269  A    between atoms: _654  and  _655
REMARK  270  A    between atoms: _660  and  _661
REMARK                            x       y       z     vdW  Elec       q    Type
REMARK                         _______ _______ _______ _____ _____    ______ ____
ROOT
ATOM      1  O   HOH     1      29.173  27.617  20.730  0.00  0.00    +0.000 OA
ENDROOT
TORSDOF 0
REMARK  Name = ../refined-set-2016/2qrm/2qrm_pocket.pdb
REMARK  270 active torsions:
REMARK  status: ('A' for Active; 'I' for Inactive)
REMARK    1  A    between atoms: _1  and  _3
REMARK    2  A    between atoms: _3  and  _4
REMARK    3  A    between atoms: _3  and  _6
REMARK    4  A    between atoms: _6  and  _7
REMARK    5  A    between atoms: _12  and  _13
REMARK    6  A    between atoms: _15  and  _17
REMARK    7  A    between atoms: _17  and  _18
REMARK    8  A    between atoms: _17  and  _20
REMARK    9  A    between atoms: _20  and  _21
REMARK   10  A    between atoms: _24  and  _26
REMARK   11  A    between atoms: _26  and  _27
REMARK   12  A    between atoms: _26  and  _29
REMARK   13  A    between atoms: _29  and  _30
REMARK   14  A    between atoms: _30  and  _31
REMARK   15  A    between atoms: _34  and  _36
REMARK   16  A    between atoms: _36  and  _37
REMARK   17  A    between atoms: _39  and  _41
REMARK   18  A    between atoms: _41  and  _42
REMARK   19  A    between atoms: _41  and  _44
REMARK   20  A    between atoms: _44  and  _45
REMARK   21  A    between atoms: _50  and  _52
REMARK   22  A    between atoms: _52  and  _53
REMARK   23  A    between atoms: _55  and  _57
REMARK   24  A    between atoms: _57  and  _58
REMARK   25  A    between atoms: _60  and  _62
REMARK   26  A    between atoms: _62  and  _63
REMARK   27  A    between atoms: _62  and  _65
REMARK   28  A    between atoms: _65  and  _66
REMARK   29  A    between atoms: _69  and  _71
REMARK   30  A    between atoms: _71  and  _72
REMARK   31  A    between atoms: _74  and  _76
REMARK   32  A    between atoms: _76  and  _77
REMARK   33  A    between atoms: _76  and  _79
REMARK   34  A    between atoms: _79  and  _80
REMARK   35  A    between atoms: _80  and  _81
REMARK   36  A    between atoms: _81  and  _82
REMARK   37  A    between atoms: _91  and  _93
REMARK   38  A    between atoms: _93  and  _94
REMARK   39  A    between atoms: _93  and  _96
REMARK   40  A    between atoms: _96  and  _97
REMARK   41  A    between atoms: _100  and  _102
REMARK   42  A    between atoms: _102  and  _103
REMARK   43  A    between atoms: _106  and  _108
REMARK   44  A    between atoms: _108  and  _109
REMARK   45  A    between atoms: _108  and  _111
REMARK   46  A    between atoms: _111  and  _112
REMARK   47  A    between atoms: _118  and  _120
REMARK   48  A    between atoms: _120  and  _121
REMARK   49  A    between atoms: _120  and  _123
REMARK   50  A    between atoms: _123  and  _124
REMARK   51  A    between atoms: _129  and  _130
REMARK   52  A    between atoms: _132  and  _134
REMARK   53  A    between atoms: _134  and  _135
REMARK   54  A    between atoms: _134  and  _137
REMARK   55  A    between atoms: _137  and  _138
REMARK   56  A    between atoms: _141  and  _143
REMARK   57  A    between atoms: _143  and  _144
REMARK   58  A    between atoms: _143  and  _146
REMARK   59  A    between atoms: _146  and  _147
REMARK   60  A    between atoms: _152  and  _153
REMARK   61  A    between atoms: _156  and  _157
REMARK   62  A    between atoms: _162  and  _164
REMARK   63  A    between atoms: _164  and  _165
REMARK   64  A    between atoms: _164  and  _167
REMARK   65  A    between atoms: _167  and  _168
REMARK   66  A    between atoms: _173  and  _175
REMARK   67  A    between atoms: _175  and  _176
REMARK   68  A    between atoms: _175  and  _178
REMARK   69  A    between atoms: _178  and  _179
REMARK   70  A    between atoms: _182  and  _184
REMARK   71  A    between atoms: _184  and  _185
REMARK   72  A    between atoms: _184  and  _187
REMARK   73  A    between atoms: _187  and  _188
REMARK   74  A    between atoms: _193  and  _195
REMARK   75  A    between atoms: _195  and  _196
REMARK   76  A    between atoms: _195  and  _198
REMARK   77  A    between atoms: _198  and  _199
REMARK   78  A    between atoms: _205  and  _207
REMARK   79  A    between atoms: _207  and  _208
REMARK   80  A    between atoms: _207  and  _210
REMARK   81  A    between atoms: _210  and  _211
REMARK   82  A    between atoms: _217  and  _219
REMARK   83  A    between atoms: _219  and  _220
REMARK   84  A    between atoms: _219  and  _222
REMARK   85  A    between atoms: _222  and  _223
REMARK   86  A    between atoms: _223  and  _224
REMARK   87  A    between atoms: _227  and  _229
REMARK   88  A    between atoms: _229  and  _230
REMARK   89  A    between atoms: _229  and  _232
REMARK   90  A    between atoms: _232  and  _233
REMARK   91  A    between atoms: _233  and  _234
REMARK   92  A    between atoms: _234  and  _235
REMARK   93  A    between atoms: _244  and  _246
REMARK   94  A    between atoms: _246  and  _247
REMARK   95  A    between atoms: _246  and  _249
REMARK   96  A    between atoms: _249  and  _250
REMARK   97  A    between atoms: _250  and  _251
REMARK   98  A    between atoms: _254  and  _256
REMARK   99  A    between atoms: _256  and  _257
REMARK  100  A    between atoms: _256  and  _259
REMARK  101  A    between atoms: _259  and  _260
REMARK  102  A    between atoms: _265  and  _267
REMARK  103  A    between atoms: _267  and  _268
REMARK  104  A    between atoms: _267  and  _270
REMARK  105  A    between atoms: _270  and  _271
REMARK  106  A    between atoms: _274  and  _276
REMARK  107  A    between atoms: _276  and  _277
REMARK  108  A    between atoms: _276  and  _279
REMARK  109  A    between atoms: _279  and  _280
REMARK  110  A    between atoms: _283  and  _285
REMARK  111  A    between atoms: _285  and  _286
REMARK  112  A    between atoms: _285  and  _288
REMARK  113  A    between atoms: _288  and  _289
REMARK  114  A    between atoms: _294  and  _296
REMARK  115  A    between atoms: _296  and  _297
REMARK  116  A    between atoms: _296  and  _299
REMARK  117  A    between atoms: _299  and  _300
REMARK  118  A    between atoms: _303  and  _305
REMARK  119  A    between atoms: _305  and  _306
REMARK  120  A    between atoms: _305  and  _308
REMARK  121  A    between atoms: _308  and  _309
REMARK  122  A    between atoms: _314  and  _316
REMARK  123  A    between atoms: _316  and  _317
REMARK  124  A    between atoms: _316  and  _319
REMARK  125  A    between atoms: _319  and  _320
REMARK  126  A    between atoms: _325  and  _327
REMARK  127  A    between atoms: _327  and  _328
REMARK  128  A    between atoms: _327  and  _330
REMARK  129  A    between atoms: _330  and  _331
REMARK  130  A    between atoms: _334  and  _336
REMARK  131  A    between atoms: _336  and  _337
REMARK  132  A    between atoms: _336  and  _339
REMARK  133  A    between atoms: _342  and  _344
REMARK  134  A    between atoms: _344  and  _345
REMARK  135  A    between atoms: _344  and  _347
REMARK  136  A    between atoms: _347  and  _348
REMARK  137  A    between atoms: _351  and  _353
REMARK  138  A    between atoms: _353  and  _354
REMARK  139  A    between atoms: _353  and  _356
REMARK  140  A    between atoms: _356  and  _357
REMARK  141  A    between atoms: _357  and  _358
REMARK  142  A    between atoms: _361  and  _363
REMARK  143  A    between atoms: _363  and  _364
REMARK  144  A    between atoms: _367  and  _369
REMARK  145  A    between atoms: _369  and  _370
REMARK  146  A    between atoms: _369  and  _372
REMARK  147  A    between atoms: _372  and  _373
REMARK  148  A    between atoms: _376  and  _378
REMARK  149  A    between atoms: _378  and  _379
REMARK  150  A    between atoms: _378  and  _381
REMARK  151  A    between atoms: _381  and  _382
REMARK  152  A    between atoms: _382  and  _383
REMARK  153  A    between atoms: _386  and  _388
REMARK  154  A    between atoms: _388  and  _389
REMARK  155  A    between atoms: _388  and  _391
REMARK  156  A    between atoms: _391  and  _392
REMARK  157  A    between atoms: _397  and  _399
REMARK  158  A    between atoms: _399  and  _400
REMARK  159  A    between atoms: _402  and  _404
REMARK  160  A    between atoms: _404  and  _405
REMARK  161  A    between atoms: _404  and  _407
REMARK  162  A    between atoms: _410  and  _412
REMARK  163  A    between atoms: _412  and  _413
REMARK  164  A    between atoms: _416  and  _418
REMARK  165  A    between atoms: _418  and  _419
REMARK  166  A    between atoms: _418  and  _421
REMARK  167  A    between atoms: _421  and  _422
REMARK  168  A    between atoms: _427  and  _429
REMARK  169  A    between atoms: _429  and  _430
REMARK  170  A    between atoms: _429  and  _432
REMARK  171  A    between atoms: _432  and  _433
REMARK  172  A    between atoms: _433  and  _434
REMARK  173  A    between atoms: _434  and  _435
REMARK  174  A    between atoms: _435  and  _436
REMARK  175  A    between atoms: _440  and  _442
REMARK  176  A    between atoms: _442  and  _443
REMARK  177  A    between atoms: _442  and  _445
REMARK  178  A    between atoms: _445  and  _446
REMARK  179  A    between atoms: _449  and  _451
REMARK  180  A    between atoms: _451  and  _452
REMARK  181  A    between atoms: _451  and  _454
REMARK  182  A    between atoms: _454  and  _455
REMARK  183  A    between atoms: _460  and  _462
REMARK  184  A    between atoms: _462  and  _463
REMARK  185  A    between atoms: _465  and  _467
REMARK  186  A    between atoms: _467  and  _468
REMARK  187  A    between atoms: _467  and  _470
REMARK  188  A    between atoms: _470  and  _471
REMARK  189  A    between atoms: _471  and  _472
REMARK  190  A    between atoms: _472  and  _473
REMARK  191  A    between atoms: _473  and  _474
REMARK  192  A    between atoms: _478  and  _480
REMARK  193  A    between atoms: _480  and  _481
REMARK  194  A    between atoms: _480  and  _483
REMARK  195  A    between atoms: _483  and  _484
REMARK  196  A    between atoms: _484  and  _485
REMARK  197  A    between atoms: _485  and  _486
REMARK  198  A    between atoms: _495  and  _497
REMARK  199  A    between atoms: _497  and  _498
REMARK  200  A    between atoms: _497  and  _500
REMARK  201  A    between atoms: _500  and  _501
REMARK  202  A    between atoms: _506  and  _507
REMARK  203  A    between atoms: _509  and  _511
REMARK  204  A    between atoms: _511  and  _512
REMARK  205  A    between atoms: _511  and  _514
REMARK  206  A    between atoms: _514  and  _515
REMARK  207  A    between atoms: _515  and  _516
REMARK  208  A    between atoms: _516  and  _517
REMARK  209  A    between atoms: _517  and  _518
REMARK  210  A    between atoms: _522  and  _524
REMARK  211  A    between atoms: _524  and  _525
REMARK  212  A    between atoms: _524  and  _527
REMARK  213  A    between atoms: _527  and  _528
REMARK  214  A    between atoms: _530  and  _532
REMARK  215  A    between atoms: _532  and  _533
REMARK  216  A    between atoms: _532  and  _535
REMARK  217  A    between atoms: _535  and  _536
REMARK  218  A    between atoms: _539  and  _541
REMARK  219  A    between atoms: _541  and  _542
REMARK  220  A    between atoms: _541  and  _544
REMARK  221  A    between atoms: _544  and  _545
REMARK  222  A    between atoms: _545  and  _546
REMARK  223  A    between atoms: _549  and  _551
REMARK  224  A    between atoms: _551  and  _552
REMARK  225  A    between atoms: _555  and  _557
REMARK  226  A    between atoms: _557  and  _558
REMARK  227  A    between atoms: _557  and  _560
REMARK  228  A    between atoms: _560  and  _561
REMARK  229  A    between atoms: _563  and  _565
REMARK  230  A    between atoms: _565  and  _566
REMARK  231  A    between atoms: _568  and  _570
REMARK  232  A    between atoms: _570  and  _571
REMARK  233  A    between atoms: _570  and  _573
REMARK  234  A    between atoms: _573  and  _574
REMARK  235  A    between atoms: _577  and  _579
REMARK  236  A    between atoms: _579  and  _580
REMARK  237  A    between atoms: _582  and  _584
REMARK  238  A    between atoms: _584  and  _585
REMARK  239  A    between atoms: _584  and  _587
REMARK  240  A    between atoms: _587  and  _588
REMARK  241  A    between atoms: _593  and  _595
REMARK  242  A    between atoms: _595  and  _596
REMARK  243  A    between atoms: _595  and  _598
REMARK  244  A    between atoms: _598  and  _599
REMARK  245  A    between atoms: _599  and  _600
REMARK  246  A    between atoms: _607  and  _608
REMARK  247  A    between atoms: _608  and  _624
REMARK  248  A    between atoms: _609  and  _611
REMARK  249  A    between atoms: _611  and  _612
REMARK  250  A    between atoms: _612  and  _613
REMARK  251  A    between atoms: _617  and  _619
REMARK  252  A    between atoms: _619  and  _620
REMARK  253  A    between atoms: _619  and  _627
REMARK  254  A    between atoms: _620  and  _621
REMARK  255  A    between atoms: _621  and  _622
REMARK  256  A    between atoms: _622  and  _623
REMARK  257  A    between atoms: _623  and  _624
REMARK  258  A    between atoms: _629  and  _631
REMARK  259  A    between atoms: _631  and  _632
REMARK  260  A    between atoms: _631  and  _634
REMARK  261  A    between atoms: _634  and  _635
REMARK  262  A    between atoms: _638  and  _640
REMARK  263  A    between atoms: _640  and  _641
REMARK  264  A    between atoms: _643  and  _645
REMARK  265  A    between atoms: _645  and  _646
REMARK  266  A    between atoms: _649  and  _651
REMARK  267  A    between atoms: _651  and  _652
REMARK  268  A    between atoms: _651  and  _654
REMARK  269  A    between atoms: _654  and  _655
REMARK  270  A    between atoms: _660  and  _661
REMARK                            x       y       z     vdW  Elec       q    Type
REMARK                         _______ _______ _______ _____ _____    ______ ____
ROOT
ATOM      1  O   HOH     1      26.197  16.702  28.722  0.00  0.00    +0.000 OA
ENDROOT
TORSDOF 0
REMARK  Name = ../refined-set-2016/2qrm/2qrm_pocket.pdb
REMARK  270 active torsions:
REMARK  status: ('A' for Active; 'I' for Inactive)
REMARK    1  A    between atoms: _1  and  _3
REMARK    2  A    between atoms: _3  and  _4
REMARK    3  A    between atoms: _3  and  _6
REMARK    4  A    between atoms: _6  and  _7
REMARK    5  A    between atoms: _12  and  _13
REMARK    6  A    between atoms: _15  and  _17
REMARK    7  A    between atoms: _17  and  _18
REMARK    8  A    between atoms: _17  and  _20
REMARK    9  A    between atoms: _20  and  _21
REMARK   10  A    between atoms: _24  and  _26
REMARK   11  A    between atoms: _26  and  _27
REMARK   12  A    between atoms: _26  and  _29
REMARK   13  A    between atoms: _29  and  _30
REMARK   14  A    between atoms: _30  and  _31
REMARK   15  A    between atoms: _34  and  _36
REMARK   16  A    between atoms: _36  and  _37
REMARK   17  A    between atoms: _39  and  _41
REMARK   18  A    between atoms: _41  and  _42
REMARK   19  A    between atoms: _41  and  _44
REMARK   20  A    between atoms: _44  and  _45
REMARK   21  A    between atoms: _50  and  _52
REMARK   22  A    between atoms: _52  and  _53
REMARK   23  A    between atoms: _55  and  _57
REMARK   24  A    between atoms: _57  and  _58
REMARK   25  A    between atoms: _60  and  _62
REMARK   26  A    between atoms: _62  and  _63
REMARK   27  A    between atoms: _62  and  _65
REMARK   28  A    between atoms: _65  and  _66
REMARK   29  A    between atoms: _69  and  _71
REMARK   30  A    between atoms: _71  and  _72
REMARK   31  A    between atoms: _74  and  _76
REMARK   32  A    between atoms: _76  and  _77
REMARK   33  A    between atoms: _76  and  _79
REMARK   34  A    between atoms: _79  and  _80
REMARK   35  A    between atoms: _80  and  _81
REMARK   36  A    between atoms: _81  and  _82
REMARK   37  A    between atoms: _91  and  _93
REMARK   38  A    between atoms: _93  and  _94
REMARK   39  A    between atoms: _93  and  _96
REMARK   40  A    between atoms: _96  and  _97
REMARK   41  A    between atoms: _100  and  _102
REMARK   42  A    between atoms: _102  and  _103
REMARK   43  A    between atoms: _106  and  _108
REMARK   44  A    between atoms: _108  and  _109
REMARK   45  A    between atoms: _108  and  _111
REMARK   46  A    between atoms: _111  and  _112
REMARK   47  A    between atoms: _118  and  _120
REMARK   48  A    between atoms: _120  and  _121
REMARK   49  A    between atoms: _120  and  _123
REMARK   50  A    between atoms: _123  and  _124
REMARK   51  A    between atoms: _129  and  _130
REMARK   52  A    between atoms: _132  and  _134
REMARK   53  A    between atoms: _134  and  _135
REMARK   54  A    between atoms: _134  and  _137
REMARK   55  A    between atoms: _137  and  _138
REMARK   56  A    between atoms: _141  and  _143
REMARK   57  A    between atoms: _143  and  _144
REMARK   58  A    between atoms: _143  and  _146
REMARK   59  A    between atoms: _146  and  _147
REMARK   60  A    between atoms: _152  and  _153
REMARK   61  A    between atoms: _156  and  _157
REMARK   62  A    between atoms: _162  and  _164
REMARK   63  A    between atoms: _164  and  _165
REMARK   64  A    between atoms: _164  and  _167
REMARK   65  A    between atoms: _167  and  _168
REMARK   66  A    between atoms: _173  and  _175
REMARK   67  A    between atoms: _175  and  _176
REMARK   68  A    between atoms: _175  and  _178
REMARK   69  A    between atoms: _178  and  _179
REMARK   70  A    between atoms: _182  and  _184
REMARK   71  A    between atoms: _184  and  _185
REMARK   72  A    between atoms: _184  and  _187
REMARK   73  A    between atoms: _187  and  _188
REMARK   74  A    between atoms: _193  and  _195
REMARK   75  A    between atoms: _195  and  _196
REMARK   76  A    between atoms: _195  and  _198
REMARK   77  A    between atoms: _198  and  _199
REMARK   78  A    between atoms: _205  and  _207
REMARK   79  A    between atoms: _207  and  _208
REMARK   80  A    between atoms: _207  and  _210
REMARK   81  A    between atoms: _210  and  _211
REMARK   82  A    between atoms: _217  and  _219
REMARK   83  A    between atoms: _219  and  _220
REMARK   84  A    between atoms: _219  and  _222
REMARK   85  A    between atoms: _222  and  _223
REMARK   86  A    between atoms: _223  and  _224
REMARK   87  A    between atoms: _227  and  _229
REMARK   88  A    between atoms: _229  and  _230
REMARK   89  A    between atoms: _229  and  _232
REMARK   90  A    between atoms: _232  and  _233
REMARK   91  A    between atoms: _233  and  _234
REMARK   92  A    between atoms: _234  and  _235
REMARK   93  A    between atoms: _244  and  _246
REMARK   94  A    between atoms: _246  and  _247
REMARK   95  A    between atoms: _246  and  _249
REMARK   96  A    between atoms: _249  and  _250
REMARK   97  A    between atoms: _250  and  _251
REMARK   98  A    between atoms: _254  and  _256
REMARK   99  A    between atoms: _256  and  _257
REMARK  100  A    between atoms: _256  and  _259
REMARK  101  A    between atoms: _259  and  _260
REMARK  102  A    between atoms: _265  and  _267
REMARK  103  A    between atoms: _267  and  _268
REMARK  104  A    between atoms: _267  and  _270
REMARK  105  A    between atoms: _270  and  _271
REMARK  106  A    between atoms: _274  and  _276
REMARK  107  A    between atoms: _276  and  _277
REMARK  108  A    between atoms: _276  and  _279
REMARK  109  A    between atoms: _279  and  _280
REMARK  110  A    between atoms: _283  and  _285
REMARK  111  A    between atoms: _285  and  _286
REMARK  112  A    between atoms: _285  and  _288
REMARK  113  A    between atoms: _288  and  _289
REMARK  114  A    between atoms: _294  and  _296
REMARK  115  A    between atoms: _296  and  _297
REMARK  116  A    between atoms: _296  and  _299
REMARK  117  A    between atoms: _299  and  _300
REMARK  118  A    between atoms: _303  and  _305
REMARK  119  A    between atoms: _305  and  _306
REMARK  120  A    between atoms: _305  and  _308
REMARK  121  A    between atoms: _308  and  _309
REMARK  122  A    between atoms: _314  and  _316
REMARK  123  A    between atoms: _316  and  _317
REMARK  124  A    between atoms: _316  and  _319
REMARK  125  A    between atoms: _319  and  _320
REMARK  126  A    between atoms: _325  and  _327
REMARK  127  A    between atoms: _327  and  _328
REMARK  128  A    between atoms: _327  and  _330
REMARK  129  A    between atoms: _330  and  _331
REMARK  130  A    between atoms: _334  and  _336
REMARK  131  A    between atoms: _336  and  _337
REMARK  132  A    between atoms: _336  and  _339
REMARK  133  A    between atoms: _342  and  _344
REMARK  134  A    between atoms: _344  and  _345
REMARK  135  A    between atoms: _344  and  _347
REMARK  136  A    between atoms: _347  and  _348
REMARK  137  A    between atoms: _351  and  _353
REMARK  138  A    between atoms: _353  and  _354
REMARK  139  A    between atoms: _353  and  _356
REMARK  140  A    between atoms: _356  and  _357
REMARK  141  A    between atoms: _357  and  _358
REMARK  142  A    between atoms: _361  and  _363
REMARK  143  A    between atoms: _363  and  _364
REMARK  144  A    between atoms: _367  and  _369
REMARK  145  A    between atoms: _369  and  _370
REMARK  146  A    between atoms: _369  and  _372
REMARK  147  A    between atoms: _372  and  _373
REMARK  148  A    between atoms: _376  and  _378
REMARK  149  A    between atoms: _378  and  _379
REMARK  150  A    between atoms: _378  and  _381
REMARK  151  A    between atoms: _381  and  _382
REMARK  152  A    between atoms: _382  and  _383
REMARK  153  A    between atoms: _386  and  _388
REMARK  154  A    between atoms: _388  and  _389
REMARK  155  A    between atoms: _388  and  _391
REMARK  156  A    between atoms: _391  and  _392
REMARK  157  A    between atoms: _397  and  _399
REMARK  158  A    between atoms: _399  and  _400
REMARK  159  A    between atoms: _402  and  _404
REMARK  160  A    between atoms: _404  and  _405
REMARK  161  A    between atoms: _404  and  _407
REMARK  162  A    between atoms: _410  and  _412
REMARK  163  A    between atoms: _412  and  _413
REMARK  164  A    between atoms: _416  and  _418
REMARK  165  A    between atoms: _418  and  _419
REMARK  166  A    between atoms: _418  and  _421
REMARK  167  A    between atoms: _421  and  _422
REMARK  168  A    between atoms: _427  and  _429
REMARK  169  A    between atoms: _429  and  _430
REMARK  170  A    between atoms: _429  and  _432
REMARK  171  A    between atoms: _432  and  _433
REMARK  172  A    between atoms: _433  and  _434
REMARK  173  A    between atoms: _434  and  _435
REMARK  174  A    between atoms: _435  and  _436
REMARK  175  A    between atoms: _440  and  _442
REMARK  176  A    between atoms: _442  and  _443
REMARK  177  A    between atoms: _442  and  _445
REMARK  178  A    between atoms: _445  and  _446
REMARK  179  A    between atoms: _449  and  _451
REMARK  180  A    between atoms: _451  and  _452
REMARK  181  A    between atoms: _451  and  _454
REMARK  182  A    between atoms: _454  and  _455
REMARK  183  A    between atoms: _460  and  _462
REMARK  184  A    between atoms: _462  and  _463
REMARK  185  A    between atoms: _465  and  _467
REMARK  186  A    between atoms: _467  and  _468
REMARK  187  A    between atoms: _467  and  _470
REMARK  188  A    between atoms: _470  and  _471
REMARK  189  A    between atoms: _471  and  _472
REMARK  190  A    between atoms: _472  and  _473
REMARK  191  A    between atoms: _473  and  _474
REMARK  192  A    between atoms: _478  and  _480
REMARK  193  A    between atoms: _480  and  _481
REMARK  194  A    between atoms: _480  and  _483
REMARK  195  A    between atoms: _483  and  _484
REMARK  196  A    between atoms: _484  and  _485
REMARK  197  A    between atoms: _485  and  _486
REMARK  198  A    between atoms: _495  and  _497
REMARK  199  A    between atoms: _497  and  _498
REMARK  200  A    between atoms: _497  and  _500
REMARK  201  A    between atoms: _500  and  _501
REMARK  202  A    between atoms: _506  and  _507
REMARK  203  A    between atoms: _509  and  _511
REMARK  204  A    between atoms: _511  and  _512
REMARK  205  A    between atoms: _511  and  _514
REMARK  206  A    between atoms: _514  and  _515
REMARK  207  A    between atoms: _515  and  _516
REMARK  208  A    between atoms: _516  and  _517
REMARK  209  A    between atoms: _517  and  _518
REMARK  210  A    between atoms: _522  and  _524
REMARK  211  A    between atoms: _524  and  _525
REMARK  212  A    between atoms: _524  and  _527
REMARK  213  A    between atoms: _527  and  _528
REMARK  214  A    between atoms: _530  and  _532
REMARK  215  A    between atoms: _532  and  _533
REMARK  216  A    between atoms: _532  and  _535
REMARK  217  A    between atoms: _535  and  _536
REMARK  218  A    between atoms: _539  and  _541
REMARK  219  A    between atoms: _541  and  _542
REMARK  220  A    between atoms: _541  and  _544
REMARK  221  A    between atoms: _544  and  _545
REMARK  222  A    between atoms: _545  and  _546
REMARK  223  A    between atoms: _549  and  _551
REMARK  224  A    between atoms: _551  and  _552
REMARK  225  A    between atoms: _555  and  _557
REMARK  226  A    between atoms: _557  and  _558
REMARK  227  A    between atoms: _557  and  _560
REMARK  228  A    between atoms: _560  and  _561
REMARK  229  A    between atoms: _563  and  _565
REMARK  230  A    between atoms: _565  and  _566
REMARK  231  A    between atoms: _568  and  _570
REMARK  232  A    between atoms: _570  and  _571
REMARK  233  A    between atoms: _570  and  _573
REMARK  234  A    between atoms: _573  and  _574
REMARK  235  A    between atoms: _577  and  _579
REMARK  236  A    between atoms: _579  and  _580
REMARK  237  A    between atoms: _582  and  _584
REMARK  238  A    between atoms: _584  and  _585
REMARK  239  A    between atoms: _584  and  _587
REMARK  240  A    between atoms: _587  and  _588
REMARK  241  A    between atoms: _593  and  _595
REMARK  242  A    between atoms: _595  and  _596
REMARK  243  A    between atoms: _595  and  _598
REMARK  244  A    between atoms: _598  and  _599
REMARK  245  A    between atoms: _599  and  _600
REMARK  246  A    between atoms: _607  and  _608
REMARK  247  A    between atoms: _608  and  _624
REMARK  248  A    between atoms: _609  and  _611
REMARK  249  A    between atoms: _611  and  _612
REMARK  250  A    between atoms: _612  and  _613
REMARK  251  A    between atoms: _617  and  _619
REMARK  252  A    between atoms: _619  and  _620
REMARK  253  A    between atoms: _619  and  _627
REMARK  254  A    between atoms: _620  and  _621
REMARK  255  A    between atoms: _621  and  _622
REMARK  256  A    between atoms: _622  and  _623
REMARK  257  A    between atoms: _623  and  _624
REMARK  258  A    between atoms: _629  and  _631
REMARK  259  A    between atoms: _631  and  _632
REMARK  260  A    between atoms: _631  and  _634
REMARK  261  A    between atoms: _634  and  _635
REMARK  262  A    between atoms: _638  and  _640
REMARK  263  A    between atoms: _640  and  _641
REMARK  264  A    between atoms: _643  and  _645
REMARK  265  A    between atoms: _645  and  _646
REMARK  266  A    between atoms: _649  and  _651
REMARK  267  A    between atoms: _651  and  _652
REMARK  268  A    between atoms: _651  and  _654
REMARK  269  A    between atoms: _654  and  _655
REMARK  270  A    between atoms: _660  and  _661
REMARK                            x       y       z     vdW  Elec       q    Type
REMARK                         _______ _______ _______ _____ _____    ______ ____
ROOT
ATOM      1  O   HOH     1      44.376  23.031  32.182  0.00  0.00    +0.000 OA
ENDROOT
TORSDOF 0
REMARK  Name = ../refined-set-2016/2qrm/2qrm_pocket.pdb
REMARK  270 active torsions:
REMARK  status: ('A' for Active; 'I' for Inactive)
REMARK    1  A    between atoms: _1  and  _3
REMARK    2  A    between atoms: _3  and  _4
REMARK    3  A    between atoms: _3  and  _6
REMARK    4  A    between atoms: _6  and  _7
REMARK    5  A    between atoms: _12  and  _13
REMARK    6  A    between atoms: _15  and  _17
REMARK    7  A    between atoms: _17  and  _18
REMARK    8  A    between atoms: _17  and  _20
REMARK    9  A    between atoms: _20  and  _21
REMARK   10  A    between atoms: _24  and  _26
REMARK   11  A    between atoms: _26  and  _27
REMARK   12  A    between atoms: _26  and  _29
REMARK   13  A    between atoms: _29  and  _30
REMARK   14  A    between atoms: _30  and  _31
REMARK   15  A    between atoms: _34  and  _36
REMARK   16  A    between atoms: _36  and  _37
REMARK   17  A    between atoms: _39  and  _41
REMARK   18  A    between atoms: _41  and  _42
REMARK   19  A    between atoms: _41  and  _44
REMARK   20  A    between atoms: _44  and  _45
REMARK   21  A    between atoms: _50  and  _52
REMARK   22  A    between atoms: _52  and  _53
REMARK   23  A    between atoms: _55  and  _57
REMARK   24  A    between atoms: _57  and  _58
REMARK   25  A    between atoms: _60  and  _62
REMARK   26  A    between atoms: _62  and  _63
REMARK   27  A    between atoms: _62  and  _65
REMARK   28  A    between atoms: _65  and  _66
REMARK   29  A    between atoms: _69  and  _71
REMARK   30  A    between atoms: _71  and  _72
REMARK   31  A    between atoms: _74  and  _76
REMARK   32  A    between atoms: _76  and  _77
REMARK   33  A    between atoms: _76  and  _79
REMARK   34  A    between atoms: _79  and  _80
REMARK   35  A    between atoms: _80  and  _81
REMARK   36  A    between atoms: _81  and  _82
REMARK   37  A    between atoms: _91  and  _93
REMARK   38  A    between atoms: _93  and  _94
REMARK   39  A    between atoms: _93  and  _96
REMARK   40  A    between atoms: _96  and  _97
REMARK   41  A    between atoms: _100  and  _102
REMARK   42  A    between atoms: _102  and  _103
REMARK   43  A    between atoms: _106  and  _108
REMARK   44  A    between atoms: _108  and  _109
REMARK   45  A    between atoms: _108  and  _111
REMARK   46  A    between atoms: _111  and  _112
REMARK   47  A    between atoms: _118  and  _120
REMARK   48  A    between atoms: _120  and  _121
REMARK   49  A    between atoms: _120  and  _123
REMARK   50  A    between atoms: _123  and  _124
REMARK   51  A    between atoms: _129  and  _130
REMARK   52  A    between atoms: _132  and  _134
REMARK   53  A    between atoms: _134  and  _135
REMARK   54  A    between atoms: _134  and  _137
REMARK   55  A    between atoms: _137  and  _138
REMARK   56  A    between atoms: _141  and  _143
REMARK   57  A    between atoms: _143  and  _144
REMARK   58  A    between atoms: _143  and  _146
REMARK   59  A    between atoms: _146  and  _147
REMARK   60  A    between atoms: _152  and  _153
REMARK   61  A    between atoms: _156  and  _157
REMARK   62  A    between atoms: _162  and  _164
REMARK   63  A    between atoms: _164  and  _165
REMARK   64  A    between atoms: _164  and  _167
REMARK   65  A    between atoms: _167  and  _168
REMARK   66  A    between atoms: _173  and  _175
REMARK   67  A    between atoms: _175  and  _176
REMARK   68  A    between atoms: _175  and  _178
REMARK   69  A    between atoms: _178  and  _179
REMARK   70  A    between atoms: _182  and  _184
REMARK   71  A    between atoms: _184  and  _185
REMARK   72  A    between atoms: _184  and  _187
REMARK   73  A    between atoms: _187  and  _188
REMARK   74  A    between atoms: _193  and  _195
REMARK   75  A    between atoms: _195  and  _196
REMARK   76  A    between atoms: _195  and  _198
REMARK   77  A    between atoms: _198  and  _199
REMARK   78  A    between atoms: _205  and  _207
REMARK   79  A    between atoms: _207  and  _208
REMARK   80  A    between atoms: _207  and  _210
REMARK   81  A    between atoms: _210  and  _211
REMARK   82  A    between atoms: _217  and  _219
REMARK   83  A    between atoms: _219  and  _220
REMARK   84  A    between atoms: _219  and  _222
REMARK   85  A    between atoms: _222  and  _223
REMARK   86  A    between atoms: _223  and  _224
REMARK   87  A    between atoms: _227  and  _229
REMARK   88  A    between atoms: _229  and  _230
REMARK   89  A    between atoms: _229  and  _232
REMARK   90  A    between atoms: _232  and  _233
REMARK   91  A    between atoms: _233  and  _234
REMARK   92  A    between atoms: _234  and  _235
REMARK   93  A    between atoms: _244  and  _246
REMARK   94  A    between atoms: _246  and  _247
REMARK   95  A    between atoms: _246  and  _249
REMARK   96  A    between atoms: _249  and  _250
REMARK   97  A    between atoms: _250  and  _251
REMARK   98  A    between atoms: _254  and  _256
REMARK   99  A    between atoms: _256  and  _257
REMARK  100  A    between atoms: _256  and  _259
REMARK  101  A    between atoms: _259  and  _260
REMARK  102  A    between atoms: _265  and  _267
REMARK  103  A    between atoms: _267  and  _268
REMARK  104  A    between atoms: _267  and  _270
REMARK  105  A    between atoms: _270  and  _271
REMARK  106  A    between atoms: _274  and  _276
REMARK  107  A    between atoms: _276  and  _277
REMARK  108  A    between atoms: _276  and  _279
REMARK  109  A    between atoms: _279  and  _280
REMARK  110  A    between atoms: _283  and  _285
REMARK  111  A    between atoms: _285  and  _286
REMARK  112  A    between atoms: _285  and  _288
REMARK  113  A    between atoms: _288  and  _289
REMARK  114  A    between atoms: _294  and  _296
REMARK  115  A    between atoms: _296  and  _297
REMARK  116  A    between atoms: _296  and  _299
REMARK  117  A    between atoms: _299  and  _300
REMARK  118  A    between atoms: _303  and  _305
REMARK  119  A    between atoms: _305  and  _306
REMARK  120  A    between atoms: _305  and  _308
REMARK  121  A    between atoms: _308  and  _309
REMARK  122  A    between atoms: _314  and  _316
REMARK  123  A    between atoms: _316  and  _317
REMARK  124  A    between atoms: _316  and  _319
REMARK  125  A    between atoms: _319  and  _320
REMARK  126  A    between atoms: _325  and  _327
REMARK  127  A    between atoms: _327  and  _328
REMARK  128  A    between atoms: _327  and  _330
REMARK  129  A    between atoms: _330  and  _331
REMARK  130  A    between atoms: _334  and  _336
REMARK  131  A    between atoms: _336  and  _337
REMARK  132  A    between atoms: _336  and  _339
REMARK  133  A    between atoms: _342  and  _344
REMARK  134  A    between atoms: _344  and  _345
REMARK  135  A    between atoms: _344  and  _347
REMARK  136  A    between atoms: _347  and  _348
REMARK  137  A    between atoms: _351  and  _353
REMARK  138  A    between atoms: _353  and  _354
REMARK  139  A    between atoms: _353  and  _356
REMARK  140  A    between atoms: _356  and  _357
REMARK  141  A    between atoms: _357  and  _358
REMARK  142  A    between atoms: _361  and  _363
REMARK  143  A    between atoms: _363  and  _364
REMARK  144  A    between atoms: _367  and  _369
REMARK  145  A    between atoms: _369  and  _370
REMARK  146  A    between atoms: _369  and  _372
REMARK  147  A    between atoms: _372  and  _373
REMARK  148  A    between atoms: _376  and  _378
REMARK  149  A    between atoms: _378  and  _379
REMARK  150  A    between atoms: _378  and  _381
REMARK  151  A    between atoms: _381  and  _382
REMARK  152  A    between atoms: _382  and  _383
REMARK  153  A    between atoms: _386  and  _388
REMARK  154  A    between atoms: _388  and  _389
REMARK  155  A    between atoms: _388  and  _391
REMARK  156  A    between atoms: _391  and  _392
REMARK  157  A    between atoms: _397  and  _399
REMARK  158  A    between atoms: _399  and  _400
REMARK  159  A    between atoms: _402  and  _404
REMARK  160  A    between atoms: _404  and  _405
REMARK  161  A    between atoms: _404  and  _407
REMARK  162  A    between atoms: _410  and  _412
REMARK  163  A    between atoms: _412  and  _413
REMARK  164  A    between atoms: _416  and  _418
REMARK  165  A    between atoms: _418  and  _419
REMARK  166  A    between atoms: _418  and  _421
REMARK  167  A    between atoms: _421  and  _422
REMARK  168  A    between atoms: _427  and  _429
REMARK  169  A    between atoms: _429  and  _430
REMARK  170  A    between atoms: _429  and  _432
REMARK  171  A    between atoms: _432  and  _433
REMARK  172  A    between atoms: _433  and  _434
REMARK  173  A    between atoms: _434  and  _435
REMARK  174  A    between atoms: _435  and  _436
REMARK  175  A    between atoms: _440  and  _442
REMARK  176  A    between atoms: _442  and  _443
REMARK  177  A    between atoms: _442  and  _445
REMARK  178  A    between atoms: _445  and  _446
REMARK  179  A    between atoms: _449  and  _451
REMARK  180  A    between atoms: _451  and  _452
REMARK  181  A    between atoms: _451  and  _454
REMARK  182  A    between atoms: _454  and  _455
REMARK  183  A    between atoms: _460  and  _462
REMARK  184  A    between atoms: _462  and  _463
REMARK  185  A    between atoms: _465  and  _467
REMARK  186  A    between atoms: _467  and  _468
REMARK  187  A    between atoms: _467  and  _470
REMARK  188  A    between atoms: _470  and  _471
REMARK  189  A    between atoms: _471  and  _472
REMARK  190  A    between atoms: _472  and  _473
REMARK  191  A    between atoms: _473  and  _474
REMARK  192  A    between atoms: _478  and  _480
REMARK  193  A    between atoms: _480  and  _481
REMARK  194  A    between atoms: _480  and  _483
REMARK  195  A    between atoms: _483  and  _484
REMARK  196  A    between atoms: _484  and  _485
REMARK  197  A    between atoms: _485  and  _486
REMARK  198  A    between atoms: _495  and  _497
REMARK  199  A    between atoms: _497  and  _498
REMARK  200  A    between atoms: _497  and  _500
REMARK  201  A    between atoms: _500  and  _501
REMARK  202  A    between atoms: _506  and  _507
REMARK  203  A    between atoms: _509  and  _511
REMARK  204  A    between atoms: _511  and  _512
REMARK  205  A    between atoms: _511  and  _514
REMARK  206  A    between atoms: _514  and  _515
REMARK  207  A    between atoms: _515  and  _516
REMARK  208  A    between atoms: _516  and  _517
REMARK  209  A    between atoms: _517  and  _518
REMARK  210  A    between atoms: _522  and  _524
REMARK  211  A    between atoms: _524  and  _525
REMARK  212  A    between atoms: _524  and  _527
REMARK  213  A    between atoms: _527  and  _528
REMARK  214  A    between atoms: _530  and  _532
REMARK  215  A    between atoms: _532  and  _533
REMARK  216  A    between atoms: _532  and  _535
REMARK  217  A    between atoms: _535  and  _536
REMARK  218  A    between atoms: _539  and  _541
REMARK  219  A    between atoms: _541  and  _542
REMARK  220  A    between atoms: _541  and  _544
REMARK  221  A    between atoms: _544  and  _545
REMARK  222  A    between atoms: _545  and  _546
REMARK  223  A    between atoms: _549  and  _551
REMARK  224  A    between atoms: _551  and  _552
REMARK  225  A    between atoms: _555  and  _557
REMARK  226  A    between atoms: _557  and  _558
REMARK  227  A    between atoms: _557  and  _560
REMARK  228  A    between atoms: _560  and  _561
REMARK  229  A    between atoms: _563  and  _565
REMARK  230  A    between atoms: _565  and  _566
REMARK  231  A    between atoms: _568  and  _570
REMARK  232  A    between atoms: _570  and  _571
REMARK  233  A    between atoms: _570  and  _573
REMARK  234  A    between atoms: _573  and  _574
REMARK  235  A    between atoms: _577  and  _579
REMARK  236  A    between atoms: _579  and  _580
REMARK  237  A    between atoms: _582  and  _584
REMARK  238  A    between atoms: _584  and  _585
REMARK  239  A    between atoms: _584  and  _587
REMARK  240  A    between atoms: _587  and  _588
REMARK  241  A    between atoms: _593  and  _595
REMARK  242  A    between atoms: _595  and  _596
REMARK  243  A    between atoms: _595  and  _598
REMARK  244  A    between atoms: _598  and  _599
REMARK  245  A    between atoms: _599  and  _600
REMARK  246  A    between atoms: _607  and  _608
REMARK  247  A    between atoms: _608  and  _624
REMARK  248  A    between atoms: _609  and  _611
REMARK  249  A    between atoms: _611  and  _612
REMARK  250  A    between atoms: _612  and  _613
REMARK  251  A    between atoms: _617  and  _619
REMARK  252  A    between atoms: _619  and  _620
REMARK  253  A    between atoms: _619  and  _627
REMARK  254  A    between atoms: _620  and  _621
REMARK  255  A    between atoms: _621  and  _622
REMARK  256  A    between atoms: _622  and  _623
REMARK  257  A    between atoms: _623  and  _624
REMARK  258  A    between atoms: _629  and  _631
REMARK  259  A    between atoms: _631  and  _632
REMARK  260  A    between atoms: _631  and  _634
REMARK  261  A    between atoms: _634  and  _635
REMARK  262  A    between atoms: _638  and  _640
REMARK  263  A    between atoms: _640  and  _641
REMARK  264  A    between atoms: _643  and  _645
REMARK  265  A    between atoms: _645  and  _646
REMARK  266  A    between atoms: _649  and  _651
REMARK  267  A    between atoms: _651  and  _652
REMARK  268  A    between atoms: _651  and  _654
REMARK  269  A    between atoms: _654  and  _655
REMARK  270  A    between atoms: _660  and  _661
REMARK                            x       y       z     vdW  Elec       q    Type
REMARK                         _______ _______ _______ _____ _____    ______ ____
ROOT
ATOM      1  O   HOH     1      30.118  25.852  28.952  0.00  0.00    +0.000 OA
ENDROOT
TORSDOF 0
REMARK  Name = ../refined-set-2016/2qrm/2qrm_pocket.pdb
REMARK  270 active torsions:
REMARK  status: ('A' for Active; 'I' for Inactive)
REMARK    1  A    between atoms: _1  and  _3
REMARK    2  A    between atoms: _3  and  _4
REMARK    3  A    between atoms: _3  and  _6
REMARK    4  A    between atoms: _6  and  _7
REMARK    5  A    between atoms: _12  and  _13
REMARK    6  A    between atoms: _15  and  _17
REMARK    7  A    between atoms: _17  and  _18
REMARK    8  A    between atoms: _17  and  _20
REMARK    9  A    between atoms: _20  and  _21
REMARK   10  A    between atoms: _24  and  _26
REMARK   11  A    between atoms: _26  and  _27
REMARK   12  A    between atoms: _26  and  _29
REMARK   13  A    between atoms: _29  and  _30
REMARK   14  A    between atoms: _30  and  _31
REMARK   15  A    between atoms: _34  and  _36
REMARK   16  A    between atoms: _36  and  _37
REMARK   17  A    between atoms: _39  and  _41
REMARK   18  A    between atoms: _41  and  _42
REMARK   19  A    between atoms: _41  and  _44
REMARK   20  A    between atoms: _44  and  _45
REMARK   21  A    between atoms: _50  and  _52
REMARK   22  A    between atoms: _52  and  _53
REMARK   23  A    between atoms: _55  and  _57
REMARK   24  A    between atoms: _57  and  _58
REMARK   25  A    between atoms: _60  and  _62
REMARK   26  A    between atoms: _62  and  _63
REMARK   27  A    between atoms: _62  and  _65
REMARK   28  A    between atoms: _65  and  _66
REMARK   29  A    between atoms: _69  and  _71
REMARK   30  A    between atoms: _71  and  _72
REMARK   31  A    between atoms: _74  and  _76
REMARK   32  A    between atoms: _76  and  _77
REMARK   33  A    between atoms: _76  and  _79
REMARK   34  A    between atoms: _79  and  _80
REMARK   35  A    between atoms: _80  and  _81
REMARK   36  A    between atoms: _81  and  _82
REMARK   37  A    between atoms: _91  and  _93
REMARK   38  A    between atoms: _93  and  _94
REMARK   39  A    between atoms: _93  and  _96
REMARK   40  A    between atoms: _96  and  _97
REMARK   41  A    between atoms: _100  and  _102
REMARK   42  A    between atoms: _102  and  _103
REMARK   43  A    between atoms: _106  and  _108
REMARK   44  A    between atoms: _108  and  _109
REMARK   45  A    between atoms: _108  and  _111
REMARK   46  A    between atoms: _111  and  _112
REMARK   47  A    between atoms: _118  and  _120
REMARK   48  A    between atoms: _120  and  _121
REMARK   49  A    between atoms: _120  and  _123
REMARK   50  A    between atoms: _123  and  _124
REMARK   51  A    between atoms: _129  and  _130
REMARK   52  A    between atoms: _132  and  _134
REMARK   53  A    between atoms: _134  and  _135
REMARK   54  A    between atoms: _134  and  _137
REMARK   55  A    between atoms: _137  and  _138
REMARK   56  A    between atoms: _141  and  _143
REMARK   57  A    between atoms: _143  and  _144
REMARK   58  A    between atoms: _143  and  _146
REMARK   59  A    between atoms: _146  and  _147
REMARK   60  A    between atoms: _152  and  _153
REMARK   61  A    between atoms: _156  and  _157
REMARK   62  A    between atoms: _162  and  _164
REMARK   63  A    between atoms: _164  and  _165
REMARK   64  A    between atoms: _164  and  _167
REMARK   65  A    between atoms: _167  and  _168
REMARK   66  A    between atoms: _173  and  _175
REMARK   67  A    between atoms: _175  and  _176
REMARK   68  A    between atoms: _175  and  _178
REMARK   69  A    between atoms: _178  and  _179
REMARK   70  A    between atoms: _182  and  _184
REMARK   71  A    between atoms: _184  and  _185
REMARK   72  A    between atoms: _184  and  _187
REMARK   73  A    between atoms: _187  and  _188
REMARK   74  A    between atoms: _193  and  _195
REMARK   75  A    between atoms: _195  and  _196
REMARK   76  A    between atoms: _195  and  _198
REMARK   77  A    between atoms: _198  and  _199
REMARK   78  A    between atoms: _205  and  _207
REMARK   79  A    between atoms: _207  and  _208
REMARK   80  A    between atoms: _207  and  _210
REMARK   81  A    between atoms: _210  and  _211
REMARK   82  A    between atoms: _217  and  _219
REMARK   83  A    between atoms: _219  and  _220
REMARK   84  A    between atoms: _219  and  _222
REMARK   85  A    between atoms: _222  and  _223
REMARK   86  A    between atoms: _223  and  _224
REMARK   87  A    between atoms: _227  and  _229
REMARK   88  A    between atoms: _229  and  _230
REMARK   89  A    between atoms: _229  and  _232
REMARK   90  A    between atoms: _232  and  _233
REMARK   91  A    between atoms: _233  and  _234
REMARK   92  A    between atoms: _234  and  _235
REMARK   93  A    between atoms: _244  and  _246
REMARK   94  A    between atoms: _246  and  _247
REMARK   95  A    between atoms: _246  and  _249
REMARK   96  A    between atoms: _249  and  _250
REMARK   97  A    between atoms: _250  and  _251
REMARK   98  A    between atoms: _254  and  _256
REMARK   99  A    between atoms: _256  and  _257
REMARK  100  A    between atoms: _256  and  _259
REMARK  101  A    between atoms: _259  and  _260
REMARK  102  A    between atoms: _265  and  _267
REMARK  103  A    between atoms: _267  and  _268
REMARK  104  A    between atoms: _267  and  _270
REMARK  105  A    between atoms: _270  and  _271
REMARK  106  A    between atoms: _274  and  _276
REMARK  107  A    between atoms: _276  and  _277
REMARK  108  A    between atoms: _276  and  _279
REMARK  109  A    between atoms: _279  and  _280
REMARK  110  A    between atoms: _283  and  _285
REMARK  111  A    between atoms: _285  and  _286
REMARK  112  A    between atoms: _285  and  _288
REMARK  113  A    between atoms: _288  and  _289
REMARK  114  A    between atoms: _294  and  _296
REMARK  115  A    between atoms: _296  and  _297
REMARK  116  A    between atoms: _296  and  _299
REMARK  117  A    between atoms: _299  and  _300
REMARK  118  A    between atoms: _303  and  _305
REMARK  119  A    between atoms: _305  and  _306
REMARK  120  A    between atoms: _305  and  _308
REMARK  121  A    between atoms: _308  and  _309
REMARK  122  A    between atoms: _314  and  _316
REMARK  123  A    between atoms: _316  and  _317
REMARK  124  A    between atoms: _316  and  _319
REMARK  125  A    between atoms: _319  and  _320
REMARK  126  A    between atoms: _325  and  _327
REMARK  127  A    between atoms: _327  and  _328
REMARK  128  A    between atoms: _327  and  _330
REMARK  129  A    between atoms: _330  and  _331
REMARK  130  A    between atoms: _334  and  _336
REMARK  131  A    between atoms: _336  and  _337
REMARK  132  A    between atoms: _336  and  _339
REMARK  133  A    between atoms: _342  and  _344
REMARK  134  A    between atoms: _344  and  _345
REMARK  135  A    between atoms: _344  and  _347
REMARK  136  A    between atoms: _347  and  _348
REMARK  137  A    between atoms: _351  and  _353
REMARK  138  A    between atoms: _353  and  _354
REMARK  139  A    between atoms: _353  and  _356
REMARK  140  A    between atoms: _356  and  _357
REMARK  141  A    between atoms: _357  and  _358
REMARK  142  A    between atoms: _361  and  _363
REMARK  143  A    between atoms: _363  and  _364
REMARK  144  A    between atoms: _367  and  _369
REMARK  145  A    between atoms: _369  and  _370
REMARK  146  A    between atoms: _369  and  _372
REMARK  147  A    between atoms: _372  and  _373
REMARK  148  A    between atoms: _376  and  _378
REMARK  149  A    between atoms: _378  and  _379
REMARK  150  A    between atoms: _378  and  _381
REMARK  151  A    between atoms: _381  and  _382
REMARK  152  A    between atoms: _382  and  _383
REMARK  153  A    between atoms: _386  and  _388
REMARK  154  A    between atoms: _388  and  _389
REMARK  155  A    between atoms: _388  and  _391
REMARK  156  A    between atoms: _391  and  _392
REMARK  157  A    between atoms: _397  and  _399
REMARK  158  A    between atoms: _399  and  _400
REMARK  159  A    between atoms: _402  and  _404
REMARK  160  A    between atoms: _404  and  _405
REMARK  161  A    between atoms: _404  and  _407
REMARK  162  A    between atoms: _410  and  _412
REMARK  163  A    between atoms: _412  and  _413
REMARK  164  A    between atoms: _416  and  _418
REMARK  165  A    between atoms: _418  and  _419
REMARK  166  A    between atoms: _418  and  _421
REMARK  167  A    between atoms: _421  and  _422
REMARK  168  A    between atoms: _427  and  _429
REMARK  169  A    between atoms: _429  and  _430
REMARK  170  A    between atoms: _429  and  _432
REMARK  171  A    between atoms: _432  and  _433
REMARK  172  A    between atoms: _433  and  _434
REMARK  173  A    between atoms: _434  and  _435
REMARK  174  A    between atoms: _435  and  _436
REMARK  175  A    between atoms: _440  and  _442
REMARK  176  A    between atoms: _442  and  _443
REMARK  177  A    between atoms: _442  and  _445
REMARK  178  A    between atoms: _445  and  _446
REMARK  179  A    between atoms: _449  and  _451
REMARK  180  A    between atoms: _451  and  _452
REMARK  181  A    between atoms: _451  and  _454
REMARK  182  A    between atoms: _454  and  _455
REMARK  183  A    between atoms: _460  and  _462
REMARK  184  A    between atoms: _462  and  _463
REMARK  185  A    between atoms: _465  and  _467
REMARK  186  A    between atoms: _467  and  _468
REMARK  187  A    between atoms: _467  and  _470
REMARK  188  A    between atoms: _470  and  _471
REMARK  189  A    between atoms: _471  and  _472
REMARK  190  A    between atoms: _472  and  _473
REMARK  191  A    between atoms: _473  and  _474
REMARK  192  A    between atoms: _478  and  _480
REMARK  193  A    between atoms: _480  and  _481
REMARK  194  A    between atoms: _480  and  _483
REMARK  195  A    between atoms: _483  and  _484
REMARK  196  A    between atoms: _484  and  _485
REMARK  197  A    between atoms: _485  and  _486
REMARK  198  A    between atoms: _495  and  _497
REMARK  199  A    between atoms: _497  and  _498
REMARK  200  A    between atoms: _497  and  _500
REMARK  201  A    between atoms: _500  and  _501
REMARK  202  A    between atoms: _506  and  _507
REMARK  203  A    between atoms: _509  and  _511
REMARK  204  A    between atoms: _511  and  _512
REMARK  205  A    between atoms: _511  and  _514
REMARK  206  A    between atoms: _514  and  _515
REMARK  207  A    between atoms: _515  and  _516
REMARK  208  A    between atoms: _516  and  _517
REMARK  209  A    between atoms: _517  and  _518
REMARK  210  A    between atoms: _522  and  _524
REMARK  211  A    between atoms: _524  and  _525
REMARK  212  A    between atoms: _524  and  _527
REMARK  213  A    between atoms: _527  and  _528
REMARK  214  A    between atoms: _530  and  _532
REMARK  215  A    between atoms: _532  and  _533
REMARK  216  A    between atoms: _532  and  _535
REMARK  217  A    between atoms: _535  and  _536
REMARK  218  A    between atoms: _539  and  _541
REMARK  219  A    between atoms: _541  and  _542
REMARK  220  A    between atoms: _541  and  _544
REMARK  221  A    between atoms: _544  and  _545
REMARK  222  A    between atoms: _545  and  _546
REMARK  223  A    between atoms: _549  and  _551
REMARK  224  A    between atoms: _551  and  _552
REMARK  225  A    between atoms: _555  and  _557
REMARK  226  A    between atoms: _557  and  _558
REMARK  227  A    between atoms: _557  and  _560
REMARK  228  A    between atoms: _560  and  _561
REMARK  229  A    between atoms: _563  and  _565
REMARK  230  A    between atoms: _565  and  _566
REMARK  231  A    between atoms: _568  and  _570
REMARK  232  A    between atoms: _570  and  _571
REMARK  233  A    between atoms: _570  and  _573
REMARK  234  A    between atoms: _573  and  _574
REMARK  235  A    between atoms: _577  and  _579
REMARK  236  A    between atoms: _579  and  _580
REMARK  237  A    between atoms: _582  and  _584
REMARK  238  A    between atoms: _584  and  _585
REMARK  239  A    between atoms: _584  and  _587
REMARK  240  A    between atoms: _587  and  _588
REMARK  241  A    between atoms: _593  and  _595
REMARK  242  A    between atoms: _595  and  _596
REMARK  243  A    between atoms: _595  and  _598
REMARK  244  A    between atoms: _598  and  _599
REMARK  245  A    between atoms: _599  and  _600
REMARK  246  A    between atoms: _607  and  _608
REMARK  247  A    between atoms: _608  and  _624
REMARK  248  A    between atoms: _609  and  _611
REMARK  249  A    between atoms: _611  and  _612
REMARK  250  A    between atoms: _612  and  _613
REMARK  251  A    between atoms: _617  and  _619
REMARK  252  A    between atoms: _619  and  _620
REMARK  253  A    between atoms: _619  and  _627
REMARK  254  A    between atoms: _620  and  _621
REMARK  255  A    between atoms: _621  and  _622
REMARK  256  A    between atoms: _622  and  _623
REMARK  257  A    between atoms: _623  and  _624
REMARK  258  A    between atoms: _629  and  _631
REMARK  259  A    between atoms: _631  and  _632
REMARK  260  A    between atoms: _631  and  _634
REMARK  261  A    between atoms: _634  and  _635
REMARK  262  A    between atoms: _638  and  _640
REMARK  263  A    between atoms: _640  and  _641
REMARK  264  A    between atoms: _643  and  _645
REMARK  265  A    between atoms: _645  and  _646
REMARK  266  A    between atoms: _649  and  _651
REMARK  267  A    between atoms: _651  and  _652
REMARK  268  A    between atoms: _651  and  _654
REMARK  269  A    between atoms: _654  and  _655
REMARK  270  A    between atoms: _660  and  _661
REMARK                            x       y       z     vdW  Elec       q    Type
REMARK                         _______ _______ _______ _____ _____    ______ ____
ROOT
ATOM      1  O   HOH     1      28.183  27.517  27.761  0.00  0.00    +0.000 OA
ENDROOT
TORSDOF 0
REMARK  Name = ../refined-set-2016/2qrm/2qrm_pocket.pdb
REMARK  270 active torsions:
REMARK  status: ('A' for Active; 'I' for Inactive)
REMARK    1  A    between atoms: _1  and  _3
REMARK    2  A    between atoms: _3  and  _4
REMARK    3  A    between atoms: _3  and  _6
REMARK    4  A    between atoms: _6  and  _7
REMARK    5  A    between atoms: _12  and  _13
REMARK    6  A    between atoms: _15  and  _17
REMARK    7  A    between atoms: _17  and  _18
REMARK    8  A    between atoms: _17  and  _20
REMARK    9  A    between atoms: _20  and  _21
REMARK   10  A    between atoms: _24  and  _26
REMARK   11  A    between atoms: _26  and  _27
REMARK   12  A    between atoms: _26  and  _29
REMARK   13  A    between atoms: _29  and  _30
REMARK   14  A    between atoms: _30  and  _31
REMARK   15  A    between atoms: _34  and  _36
REMARK   16  A    between atoms: _36  and  _37
REMARK   17  A    between atoms: _39  and  _41
REMARK   18  A    between atoms: _41  and  _42
REMARK   19  A    between atoms: _41  and  _44
REMARK   20  A    between atoms: _44  and  _45
REMARK   21  A    between atoms: _50  and  _52
REMARK   22  A    between atoms: _52  and  _53
REMARK   23  A    between atoms: _55  and  _57
REMARK   24  A    between atoms: _57  and  _58
REMARK   25  A    between atoms: _60  and  _62
REMARK   26  A    between atoms: _62  and  _63
REMARK   27  A    between atoms: _62  and  _65
REMARK   28  A    between atoms: _65  and  _66
REMARK   29  A    between atoms: _69  and  _71
REMARK   30  A    between atoms: _71  and  _72
REMARK   31  A    between atoms: _74  and  _76
REMARK   32  A    between atoms: _76  and  _77
REMARK   33  A    between atoms: _76  and  _79
REMARK   34  A    between atoms: _79  and  _80
REMARK   35  A    between atoms: _80  and  _81
REMARK   36  A    between atoms: _81  and  _82
REMARK   37  A    between atoms: _91  and  _93
REMARK   38  A    between atoms: _93  and  _94
REMARK   39  A    between atoms: _93  and  _96
REMARK   40  A    between atoms: _96  and  _97
REMARK   41  A    between atoms: _100  and  _102
REMARK   42  A    between atoms: _102  and  _103
REMARK   43  A    between atoms: _106  and  _108
REMARK   44  A    between atoms: _108  and  _109
REMARK   45  A    between atoms: _108  and  _111
REMARK   46  A    between atoms: _111  and  _112
REMARK   47  A    between atoms: _118  and  _120
REMARK   48  A    between atoms: _120  and  _121
REMARK   49  A    between atoms: _120  and  _123
REMARK   50  A    between atoms: _123  and  _124
REMARK   51  A    between atoms: _129  and  _130
REMARK   52  A    between atoms: _132  and  _134
REMARK   53  A    between atoms: _134  and  _135
REMARK   54  A    between atoms: _134  and  _137
REMARK   55  A    between atoms: _137  and  _138
REMARK   56  A    between atoms: _141  and  _143
REMARK   57  A    between atoms: _143  and  _144
REMARK   58  A    between atoms: _143  and  _146
REMARK   59  A    between atoms: _146  and  _147
REMARK   60  A    between atoms: _152  and  _153
REMARK   61  A    between atoms: _156  and  _157
REMARK   62  A    between atoms: _162  and  _164
REMARK   63  A    between atoms: _164  and  _165
REMARK   64  A    between atoms: _164  and  _167
REMARK   65  A    between atoms: _167  and  _168
REMARK   66  A    between atoms: _173  and  _175
REMARK   67  A    between atoms: _175  and  _176
REMARK   68  A    between atoms: _175  and  _178
REMARK   69  A    between atoms: _178  and  _179
REMARK   70  A    between atoms: _182  and  _184
REMARK   71  A    between atoms: _184  and  _185
REMARK   72  A    between atoms: _184  and  _187
REMARK   73  A    between atoms: _187  and  _188
REMARK   74  A    between atoms: _193  and  _195
REMARK   75  A    between atoms: _195  and  _196
REMARK   76  A    between atoms: _195  and  _198
REMARK   77  A    between atoms: _198  and  _199
REMARK   78  A    between atoms: _205  and  _207
REMARK   79  A    between atoms: _207  and  _208
REMARK   80  A    between atoms: _207  and  _210
REMARK   81  A    between atoms: _210  and  _211
REMARK   82  A    between atoms: _217  and  _219
REMARK   83  A    between atoms: _219  and  _220
REMARK   84  A    between atoms: _219  and  _222
REMARK   85  A    between atoms: _222  and  _223
REMARK   86  A    between atoms: _223  and  _224
REMARK   87  A    between atoms: _227  and  _229
REMARK   88  A    between atoms: _229  and  _230
REMARK   89  A    between atoms: _229  and  _232
REMARK   90  A    between atoms: _232  and  _233
REMARK   91  A    between atoms: _233  and  _234
REMARK   92  A    between atoms: _234  and  _235
REMARK   93  A    between atoms: _244  and  _246
REMARK   94  A    between atoms: _246  and  _247
REMARK   95  A    between atoms: _246  and  _249
REMARK   96  A    between atoms: _249  and  _250
REMARK   97  A    between atoms: _250  and  _251
REMARK   98  A    between atoms: _254  and  _256
REMARK   99  A    between atoms: _256  and  _257
REMARK  100  A    between atoms: _256  and  _259
REMARK  101  A    between atoms: _259  and  _260
REMARK  102  A    between atoms: _265  and  _267
REMARK  103  A    between atoms: _267  and  _268
REMARK  104  A    between atoms: _267  and  _270
REMARK  105  A    between atoms: _270  and  _271
REMARK  106  A    between atoms: _274  and  _276
REMARK  107  A    between atoms: _276  and  _277
REMARK  108  A    between atoms: _276  and  _279
REMARK  109  A    between atoms: _279  and  _280
REMARK  110  A    between atoms: _283  and  _285
REMARK  111  A    between atoms: _285  and  _286
REMARK  112  A    between atoms: _285  and  _288
REMARK  113  A    between atoms: _288  and  _289
REMARK  114  A    between atoms: _294  and  _296
REMARK  115  A    between atoms: _296  and  _297
REMARK  116  A    between atoms: _296  and  _299
REMARK  117  A    between atoms: _299  and  _300
REMARK  118  A    between atoms: _303  and  _305
REMARK  119  A    between atoms: _305  and  _306
REMARK  120  A    between atoms: _305  and  _308
REMARK  121  A    between atoms: _308  and  _309
REMARK  122  A    between atoms: _314  and  _316
REMARK  123  A    between atoms: _316  and  _317
REMARK  124  A    between atoms: _316  and  _319
REMARK  125  A    between atoms: _319  and  _320
REMARK  126  A    between atoms: _325  and  _327
REMARK  127  A    between atoms: _327  and  _328
REMARK  128  A    between atoms: _327  and  _330
REMARK  129  A    between atoms: _330  and  _331
REMARK  130  A    between atoms: _334  and  _336
REMARK  131  A    between atoms: _336  and  _337
REMARK  132  A    between atoms: _336  and  _339
REMARK  133  A    between atoms: _342  and  _344
REMARK  134  A    between atoms: _344  and  _345
REMARK  135  A    between atoms: _344  and  _347
REMARK  136  A    between atoms: _347  and  _348
REMARK  137  A    between atoms: _351  and  _353
REMARK  138  A    between atoms: _353  and  _354
REMARK  139  A    between atoms: _353  and  _356
REMARK  140  A    between atoms: _356  and  _357
REMARK  141  A    between atoms: _357  and  _358
REMARK  142  A    between atoms: _361  and  _363
REMARK  143  A    between atoms: _363  and  _364
REMARK  144  A    between atoms: _367  and  _369
REMARK  145  A    between atoms: _369  and  _370
REMARK  146  A    between atoms: _369  and  _372
REMARK  147  A    between atoms: _372  and  _373
REMARK  148  A    between atoms: _376  and  _378
REMARK  149  A    between atoms: _378  and  _379
REMARK  150  A    between atoms: _378  and  _381
REMARK  151  A    between atoms: _381  and  _382
REMARK  152  A    between atoms: _382  and  _383
REMARK  153  A    between atoms: _386  and  _388
REMARK  154  A    between atoms: _388  and  _389
REMARK  155  A    between atoms: _388  and  _391
REMARK  156  A    between atoms: _391  and  _392
REMARK  157  A    between atoms: _397  and  _399
REMARK  158  A    between atoms: _399  and  _400
REMARK  159  A    between atoms: _402  and  _404
REMARK  160  A    between atoms: _404  and  _405
REMARK  161  A    between atoms: _404  and  _407
REMARK  162  A    between atoms: _410  and  _412
REMARK  163  A    between atoms: _412  and  _413
REMARK  164  A    between atoms: _416  and  _418
REMARK  165  A    between atoms: _418  and  _419
REMARK  166  A    between atoms: _418  and  _421
REMARK  167  A    between atoms: _421  and  _422
REMARK  168  A    between atoms: _427  and  _429
REMARK  169  A    between atoms: _429  and  _430
REMARK  170  A    between atoms: _429  and  _432
REMARK  171  A    between atoms: _432  and  _433
REMARK  172  A    between atoms: _433  and  _434
REMARK  173  A    between atoms: _434  and  _435
REMARK  174  A    between atoms: _435  and  _436
REMARK  175  A    between atoms: _440  and  _442
REMARK  176  A    between atoms: _442  and  _443
REMARK  177  A    between atoms: _442  and  _445
REMARK  178  A    between atoms: _445  and  _446
REMARK  179  A    between atoms: _449  and  _451
REMARK  180  A    between atoms: _451  and  _452
REMARK  181  A    between atoms: _451  and  _454
REMARK  182  A    between atoms: _454  and  _455
REMARK  183  A    between atoms: _460  and  _462
REMARK  184  A    between atoms: _462  and  _463
REMARK  185  A    between atoms: _465  and  _467
REMARK  186  A    between atoms: _467  and  _468
REMARK  187  A    between atoms: _467  and  _470
REMARK  188  A    between atoms: _470  and  _471
REMARK  189  A    between atoms: _471  and  _472
REMARK  190  A    between atoms: _472  and  _473
REMARK  191  A    between atoms: _473  and  _474
REMARK  192  A    between atoms: _478  and  _480
REMARK  193  A    between atoms: _480  and  _481
REMARK  194  A    between atoms: _480  and  _483
REMARK  195  A    between atoms: _483  and  _484
REMARK  196  A    between atoms: _484  and  _485
REMARK  197  A    between atoms: _485  and  _486
REMARK  198  A    between atoms: _495  and  _497
REMARK  199  A    between atoms: _497  and  _498
REMARK  200  A    between atoms: _497  and  _500
REMARK  201  A    between atoms: _500  and  _501
REMARK  202  A    between atoms: _506  and  _507
REMARK  203  A    between atoms: _509  and  _511
REMARK  204  A    between atoms: _511  and  _512
REMARK  205  A    between atoms: _511  and  _514
REMARK  206  A    between atoms: _514  and  _515
REMARK  207  A    between atoms: _515  and  _516
REMARK  208  A    between atoms: _516  and  _517
REMARK  209  A    between atoms: _517  and  _518
REMARK  210  A    between atoms: _522  and  _524
REMARK  211  A    between atoms: _524  and  _525
REMARK  212  A    between atoms: _524  and  _527
REMARK  213  A    between atoms: _527  and  _528
REMARK  214  A    between atoms: _530  and  _532
REMARK  215  A    between atoms: _532  and  _533
REMARK  216  A    between atoms: _532  and  _535
REMARK  217  A    between atoms: _535  and  _536
REMARK  218  A    between atoms: _539  and  _541
REMARK  219  A    between atoms: _541  and  _542
REMARK  220  A    between atoms: _541  and  _544
REMARK  221  A    between atoms: _544  and  _545
REMARK  222  A    between atoms: _545  and  _546
REMARK  223  A    between atoms: _549  and  _551
REMARK  224  A    between atoms: _551  and  _552
REMARK  225  A    between atoms: _555  and  _557
REMARK  226  A    between atoms: _557  and  _558
REMARK  227  A    between atoms: _557  and  _560
REMARK  228  A    between atoms: _560  and  _561
REMARK  229  A    between atoms: _563  and  _565
REMARK  230  A    between atoms: _565  and  _566
REMARK  231  A    between atoms: _568  and  _570
REMARK  232  A    between atoms: _570  and  _571
REMARK  233  A    between atoms: _570  and  _573
REMARK  234  A    between atoms: _573  and  _574
REMARK  235  A    between atoms: _577  and  _579
REMARK  236  A    between atoms: _579  and  _580
REMARK  237  A    between atoms: _582  and  _584
REMARK  238  A    between atoms: _584  and  _585
REMARK  239  A    between atoms: _584  and  _587
REMARK  240  A    between atoms: _587  and  _588
REMARK  241  A    between atoms: _593  and  _595
REMARK  242  A    between atoms: _595  and  _596
REMARK  243  A    between atoms: _595  and  _598
REMARK  244  A    between atoms: _598  and  _599
REMARK  245  A    between atoms: _599  and  _600
REMARK  246  A    between atoms: _607  and  _608
REMARK  247  A    between atoms: _608  and  _624
REMARK  248  A    between atoms: _609  and  _611
REMARK  249  A    between atoms: _611  and  _612
REMARK  250  A    between atoms: _612  and  _613
REMARK  251  A    between atoms: _617  and  _619
REMARK  252  A    between atoms: _619  and  _620
REMARK  253  A    between atoms: _619  and  _627
REMARK  254  A    between atoms: _620  and  _621
REMARK  255  A    between atoms: _621  and  _622
REMARK  256  A    between atoms: _622  and  _623
REMARK  257  A    between atoms: _623  and  _624
REMARK  258  A    between atoms: _629  and  _631
REMARK  259  A    between atoms: _631  and  _632
REMARK  260  A    between atoms: _631  and  _634
REMARK  261  A    between atoms: _634  and  _635
REMARK  262  A    between atoms: _638  and  _640
REMARK  263  A    between atoms: _640  and  _641
REMARK  264  A    between atoms: _643  and  _645
REMARK  265  A    between atoms: _645  and  _646
REMARK  266  A    between atoms: _649  and  _651
REMARK  267  A    between atoms: _651  and  _652
REMARK  268  A    between atoms: _651  and  _654
REMARK  269  A    between atoms: _654  and  _655
REMARK  270  A    between atoms: _660  and  _661
REMARK                            x       y       z     vdW  Elec       q    Type
REMARK                         _______ _______ _______ _____ _____    ______ ____
ROOT
ATOM      1  O   HOH     1      26.993  23.599  21.724  0.00  0.00    +0.000 OA
ENDROOT
TORSDOF 0
REMARK  Name = ../refined-set-2016/2qrm/2qrm_pocket.pdb
REMARK  270 active torsions:
REMARK  status: ('A' for Active; 'I' for Inactive)
REMARK    1  A    between atoms: _1  and  _3
REMARK    2  A    between atoms: _3  and  _4
REMARK    3  A    between atoms: _3  and  _6
REMARK    4  A    between atoms: _6  and  _7
REMARK    5  A    between atoms: _12  and  _13
REMARK    6  A    between atoms: _15  and  _17
REMARK    7  A    between atoms: _17  and  _18
REMARK    8  A    between atoms: _17  and  _20
REMARK    9  A    between atoms: _20  and  _21
REMARK   10  A    between atoms: _24  and  _26
REMARK   11  A    between atoms: _26  and  _27
REMARK   12  A    between atoms: _26  and  _29
REMARK   13  A    between atoms: _29  and  _30
REMARK   14  A    between atoms: _30  and  _31
REMARK   15  A    between atoms: _34  and  _36
REMARK   16  A    between atoms: _36  and  _37
REMARK   17  A    between atoms: _39  and  _41
REMARK   18  A    between atoms: _41  and  _42
REMARK   19  A    between atoms: _41  and  _44
REMARK   20  A    between atoms: _44  and  _45
REMARK   21  A    between atoms: _50  and  _52
REMARK   22  A    between atoms: _52  and  _53
REMARK   23  A    between atoms: _55  and  _57
REMARK   24  A    between atoms: _57  and  _58
REMARK   25  A    between atoms: _60  and  _62
REMARK   26  A    between atoms: _62  and  _63
REMARK   27  A    between atoms: _62  and  _65
REMARK   28  A    between atoms: _65  and  _66
REMARK   29  A    between atoms: _69  and  _71
REMARK   30  A    between atoms: _71  and  _72
REMARK   31  A    between atoms: _74  and  _76
REMARK   32  A    between atoms: _76  and  _77
REMARK   33  A    between atoms: _76  and  _79
REMARK   34  A    between atoms: _79  and  _80
REMARK   35  A    between atoms: _80  and  _81
REMARK   36  A    between atoms: _81  and  _82
REMARK   37  A    between atoms: _91  and  _93
REMARK   38  A    between atoms: _93  and  _94
REMARK   39  A    between atoms: _93  and  _96
REMARK   40  A    between atoms: _96  and  _97
REMARK   41  A    between atoms: _100  and  _102
REMARK   42  A    between atoms: _102  and  _103
REMARK   43  A    between atoms: _106  and  _108
REMARK   44  A    between atoms: _108  and  _109
REMARK   45  A    between atoms: _108  and  _111
REMARK   46  A    between atoms: _111  and  _112
REMARK   47  A    between atoms: _118  and  _120
REMARK   48  A    between atoms: _120  and  _121
REMARK   49  A    between atoms: _120  and  _123
REMARK   50  A    between atoms: _123  and  _124
REMARK   51  A    between atoms: _129  and  _130
REMARK   52  A    between atoms: _132  and  _134
REMARK   53  A    between atoms: _134  and  _135
REMARK   54  A    between atoms: _134  and  _137
REMARK   55  A    between atoms: _137  and  _138
REMARK   56  A    between atoms: _141  and  _143
REMARK   57  A    between atoms: _143  and  _144
REMARK   58  A    between atoms: _143  and  _146
REMARK   59  A    between atoms: _146  and  _147
REMARK   60  A    between atoms: _152  and  _153
REMARK   61  A    between atoms: _156  and  _157
REMARK   62  A    between atoms: _162  and  _164
REMARK   63  A    between atoms: _164  and  _165
REMARK   64  A    between atoms: _164  and  _167
REMARK   65  A    between atoms: _167  and  _168
REMARK   66  A    between atoms: _173  and  _175
REMARK   67  A    between atoms: _175  and  _176
REMARK   68  A    between atoms: _175  and  _178
REMARK   69  A    between atoms: _178  and  _179
REMARK   70  A    between atoms: _182  and  _184
REMARK   71  A    between atoms: _184  and  _185
REMARK   72  A    between atoms: _184  and  _187
REMARK   73  A    between atoms: _187  and  _188
REMARK   74  A    between atoms: _193  and  _195
REMARK   75  A    between atoms: _195  and  _196
REMARK   76  A    between atoms: _195  and  _198
REMARK   77  A    between atoms: _198  and  _199
REMARK   78  A    between atoms: _205  and  _207
REMARK   79  A    between atoms: _207  and  _208
REMARK   80  A    between atoms: _207  and  _210
REMARK   81  A    between atoms: _210  and  _211
REMARK   82  A    between atoms: _217  and  _219
REMARK   83  A    between atoms: _219  and  _220
REMARK   84  A    between atoms: _219  and  _222
REMARK   85  A    between atoms: _222  and  _223
REMARK   86  A    between atoms: _223  and  _224
REMARK   87  A    between atoms: _227  and  _229
REMARK   88  A    between atoms: _229  and  _230
REMARK   89  A    between atoms: _229  and  _232
REMARK   90  A    between atoms: _232  and  _233
REMARK   91  A    between atoms: _233  and  _234
REMARK   92  A    between atoms: _234  and  _235
REMARK   93  A    between atoms: _244  and  _246
REMARK   94  A    between atoms: _246  and  _247
REMARK   95  A    between atoms: _246  and  _249
REMARK   96  A    between atoms: _249  and  _250
REMARK   97  A    between atoms: _250  and  _251
REMARK   98  A    between atoms: _254  and  _256
REMARK   99  A    between atoms: _256  and  _257
REMARK  100  A    between atoms: _256  and  _259
REMARK  101  A    between atoms: _259  and  _260
REMARK  102  A    between atoms: _265  and  _267
REMARK  103  A    between atoms: _267  and  _268
REMARK  104  A    between atoms: _267  and  _270
REMARK  105  A    between atoms: _270  and  _271
REMARK  106  A    between atoms: _274  and  _276
REMARK  107  A    between atoms: _276  and  _277
REMARK  108  A    between atoms: _276  and  _279
REMARK  109  A    between atoms: _279  and  _280
REMARK  110  A    between atoms: _283  and  _285
REMARK  111  A    between atoms: _285  and  _286
REMARK  112  A    between atoms: _285  and  _288
REMARK  113  A    between atoms: _288  and  _289
REMARK  114  A    between atoms: _294  and  _296
REMARK  115  A    between atoms: _296  and  _297
REMARK  116  A    between atoms: _296  and  _299
REMARK  117  A    between atoms: _299  and  _300
REMARK  118  A    between atoms: _303  and  _305
REMARK  119  A    between atoms: _305  and  _306
REMARK  120  A    between atoms: _305  and  _308
REMARK  121  A    between atoms: _308  and  _309
REMARK  122  A    between atoms: _314  and  _316
REMARK  123  A    between atoms: _316  and  _317
REMARK  124  A    between atoms: _316  and  _319
REMARK  125  A    between atoms: _319  and  _320
REMARK  126  A    between atoms: _325  and  _327
REMARK  127  A    between atoms: _327  and  _328
REMARK  128  A    between atoms: _327  and  _330
REMARK  129  A    between atoms: _330  and  _331
REMARK  130  A    between atoms: _334  and  _336
REMARK  131  A    between atoms: _336  and  _337
REMARK  132  A    between atoms: _336  and  _339
REMARK  133  A    between atoms: _342  and  _344
REMARK  134  A    between atoms: _344  and  _345
REMARK  135  A    between atoms: _344  and  _347
REMARK  136  A    between atoms: _347  and  _348
REMARK  137  A    between atoms: _351  and  _353
REMARK  138  A    between atoms: _353  and  _354
REMARK  139  A    between atoms: _353  and  _356
REMARK  140  A    between atoms: _356  and  _357
REMARK  141  A    between atoms: _357  and  _358
REMARK  142  A    between atoms: _361  and  _363
REMARK  143  A    between atoms: _363  and  _364
REMARK  144  A    between atoms: _367  and  _369
REMARK  145  A    between atoms: _369  and  _370
REMARK  146  A    between atoms: _369  and  _372
REMARK  147  A    between atoms: _372  and  _373
REMARK  148  A    between atoms: _376  and  _378
REMARK  149  A    between atoms: _378  and  _379
REMARK  150  A    between atoms: _378  and  _381
REMARK  151  A    between atoms: _381  and  _382
REMARK  152  A    between atoms: _382  and  _383
REMARK  153  A    between atoms: _386  and  _388
REMARK  154  A    between atoms: _388  and  _389
REMARK  155  A    between atoms: _388  and  _391
REMARK  156  A    between atoms: _391  and  _392
REMARK  157  A    between atoms: _397  and  _399
REMARK  158  A    between atoms: _399  and  _400
REMARK  159  A    between atoms: _402  and  _404
REMARK  160  A    between atoms: _404  and  _405
REMARK  161  A    between atoms: _404  and  _407
REMARK  162  A    between atoms: _410  and  _412
REMARK  163  A    between atoms: _412  and  _413
REMARK  164  A    between atoms: _416  and  _418
REMARK  165  A    between atoms: _418  and  _419
REMARK  166  A    between atoms: _418  and  _421
REMARK  167  A    between atoms: _421  and  _422
REMARK  168  A    between atoms: _427  and  _429
REMARK  169  A    between atoms: _429  and  _430
REMARK  170  A    between atoms: _429  and  _432
REMARK  171  A    between atoms: _432  and  _433
REMARK  172  A    between atoms: _433  and  _434
REMARK  173  A    between atoms: _434  and  _435
REMARK  174  A    between atoms: _435  and  _436
REMARK  175  A    between atoms: _440  and  _442
REMARK  176  A    between atoms: _442  and  _443
REMARK  177  A    between atoms: _442  and  _445
REMARK  178  A    between atoms: _445  and  _446
REMARK  179  A    between atoms: _449  and  _451
REMARK  180  A    between atoms: _451  and  _452
REMARK  181  A    between atoms: _451  and  _454
REMARK  182  A    between atoms: _454  and  _455
REMARK  183  A    between atoms: _460  and  _462
REMARK  184  A    between atoms: _462  and  _463
REMARK  185  A    between atoms: _465  and  _467
REMARK  186  A    between atoms: _467  and  _468
REMARK  187  A    between atoms: _467  and  _470
REMARK  188  A    between atoms: _470  and  _471
REMARK  189  A    between atoms: _471  and  _472
REMARK  190  A    between atoms: _472  and  _473
REMARK  191  A    between atoms: _473  and  _474
REMARK  192  A    between atoms: _478  and  _480
REMARK  193  A    between atoms: _480  and  _481
REMARK  194  A    between atoms: _480  and  _483
REMARK  195  A    between atoms: _483  and  _484
REMARK  196  A    between atoms: _484  and  _485
REMARK  197  A    between atoms: _485  and  _486
REMARK  198  A    between atoms: _495  and  _497
REMARK  199  A    between atoms: _497  and  _498
REMARK  200  A    between atoms: _497  and  _500
REMARK  201  A    between atoms: _500  and  _501
REMARK  202  A    between atoms: _506  and  _507
REMARK  203  A    between atoms: _509  and  _511
REMARK  204  A    between atoms: _511  and  _512
REMARK  205  A    between atoms: _511  and  _514
REMARK  206  A    between atoms: _514  and  _515
REMARK  207  A    between atoms: _515  and  _516
REMARK  208  A    between atoms: _516  and  _517
REMARK  209  A    between atoms: _517  and  _518
REMARK  210  A    between atoms: _522  and  _524
REMARK  211  A    between atoms: _524  and  _525
REMARK  212  A    between atoms: _524  and  _527
REMARK  213  A    between atoms: _527  and  _528
REMARK  214  A    between atoms: _530  and  _532
REMARK  215  A    between atoms: _532  and  _533
REMARK  216  A    between atoms: _532  and  _535
REMARK  217  A    between atoms: _535  and  _536
REMARK  218  A    between atoms: _539  and  _541
REMARK  219  A    between atoms: _541  and  _542
REMARK  220  A    between atoms: _541  and  _544
REMARK  221  A    between atoms: _544  and  _545
REMARK  222  A    between atoms: _545  and  _546
REMARK  223  A    between atoms: _549  and  _551
REMARK  224  A    between atoms: _551  and  _552
REMARK  225  A    between atoms: _555  and  _557
REMARK  226  A    between atoms: _557  and  _558
REMARK  227  A    between atoms: _557  and  _560
REMARK  228  A    between atoms: _560  and  _561
REMARK  229  A    between atoms: _563  and  _565
REMARK  230  A    between atoms: _565  and  _566
REMARK  231  A    between atoms: _568  and  _570
REMARK  232  A    between atoms: _570  and  _571
REMARK  233  A    between atoms: _570  and  _573
REMARK  234  A    between atoms: _573  and  _574
REMARK  235  A    between atoms: _577  and  _579
REMARK  236  A    between atoms: _579  and  _580
REMARK  237  A    between atoms: _582  and  _584
REMARK  238  A    between atoms: _584  and  _585
REMARK  239  A    between atoms: _584  and  _587
REMARK  240  A    between atoms: _587  and  _588
REMARK  241  A    between atoms: _593  and  _595
REMARK  242  A    between atoms: _595  and  _596
REMARK  243  A    between atoms: _595  and  _598
REMARK  244  A    between atoms: _598  and  _599
REMARK  245  A    between atoms: _599  and  _600
REMARK  246  A    between atoms: _607  and  _608
REMARK  247  A    between atoms: _608  and  _624
REMARK  248  A    between atoms: _609  and  _611
REMARK  249  A    between atoms: _611  and  _612
REMARK  250  A    between atoms: _612  and  _613
REMARK  251  A    between atoms: _617  and  _619
REMARK  252  A    between atoms: _619  and  _620
REMARK  253  A    between atoms: _619  and  _627
REMARK  254  A    between atoms: _620  and  _621
REMARK  255  A    between atoms: _621  and  _622
REMARK  256  A    between atoms: _622  and  _623
REMARK  257  A    between atoms: _623  and  _624
REMARK  258  A    between atoms: _629  and  _631
REMARK  259  A    between atoms: _631  and  _632
REMARK  260  A    between atoms: _631  and  _634
REMARK  261  A    between atoms: _634  and  _635
REMARK  262  A    between atoms: _638  and  _640
REMARK  263  A    between atoms: _640  and  _641
REMARK  264  A    between atoms: _643  and  _645
REMARK  265  A    between atoms: _645  and  _646
REMARK  266  A    between atoms: _649  and  _651
REMARK  267  A    between atoms: _651  and  _652
REMARK  268  A    between atoms: _651  and  _654
REMARK  269  A    between atoms: _654  and  _655
REMARK  270  A    between atoms: _660  and  _661
REMARK                            x       y       z     vdW  Elec       q    Type
REMARK                         _______ _______ _______ _____ _____    ______ ____
ROOT
ATOM      1  O   HOH     1      35.382  12.758  31.077  0.00  0.00    +0.000 OA
ENDROOT
TORSDOF 0
REMARK  Name = ../refined-set-2016/2qrm/2qrm_pocket.pdb
REMARK  270 active torsions:
REMARK  status: ('A' for Active; 'I' for Inactive)
REMARK    1  A    between atoms: _1  and  _3
REMARK    2  A    between atoms: _3  and  _4
REMARK    3  A    between atoms: _3  and  _6
REMARK    4  A    between atoms: _6  and  _7
REMARK    5  A    between atoms: _12  and  _13
REMARK    6  A    between atoms: _15  and  _17
REMARK    7  A    between atoms: _17  and  _18
REMARK    8  A    between atoms: _17  and  _20
REMARK    9  A    between atoms: _20  and  _21
REMARK   10  A    between atoms: _24  and  _26
REMARK   11  A    between atoms: _26  and  _27
REMARK   12  A    between atoms: _26  and  _29
REMARK   13  A    between atoms: _29  and  _30
REMARK   14  A    between atoms: _30  and  _31
REMARK   15  A    between atoms: _34  and  _36
REMARK   16  A    between atoms: _36  and  _37
REMARK   17  A    between atoms: _39  and  _41
REMARK   18  A    between atoms: _41  and  _42
REMARK   19  A    between atoms: _41  and  _44
REMARK   20  A    between atoms: _44  and  _45
REMARK   21  A    between atoms: _50  and  _52
REMARK   22  A    between atoms: _52  and  _53
REMARK   23  A    between atoms: _55  and  _57
REMARK   24  A    between atoms: _57  and  _58
REMARK   25  A    between atoms: _60  and  _62
REMARK   26  A    between atoms: _62  and  _63
REMARK   27  A    between atoms: _62  and  _65
REMARK   28  A    between atoms: _65  and  _66
REMARK   29  A    between atoms: _69  and  _71
REMARK   30  A    between atoms: _71  and  _72
REMARK   31  A    between atoms: _74  and  _76
REMARK   32  A    between atoms: _76  and  _77
REMARK   33  A    between atoms: _76  and  _79
REMARK   34  A    between atoms: _79  and  _80
REMARK   35  A    between atoms: _80  and  _81
REMARK   36  A    between atoms: _81  and  _82
REMARK   37  A    between atoms: _91  and  _93
REMARK   38  A    between atoms: _93  and  _94
REMARK   39  A    between atoms: _93  and  _96
REMARK   40  A    between atoms: _96  and  _97
REMARK   41  A    between atoms: _100  and  _102
REMARK   42  A    between atoms: _102  and  _103
REMARK   43  A    between atoms: _106  and  _108
REMARK   44  A    between atoms: _108  and  _109
REMARK   45  A    between atoms: _108  and  _111
REMARK   46  A    between atoms: _111  and  _112
REMARK   47  A    between atoms: _118  and  _120
REMARK   48  A    between atoms: _120  and  _121
REMARK   49  A    between atoms: _120  and  _123
REMARK   50  A    between atoms: _123  and  _124
REMARK   51  A    between atoms: _129  and  _130
REMARK   52  A    between atoms: _132  and  _134
REMARK   53  A    between atoms: _134  and  _135
REMARK   54  A    between atoms: _134  and  _137
REMARK   55  A    between atoms: _137  and  _138
REMARK   56  A    between atoms: _141  and  _143
REMARK   57  A    between atoms: _143  and  _144
REMARK   58  A    between atoms: _143  and  _146
REMARK   59  A    between atoms: _146  and  _147
REMARK   60  A    between atoms: _152  and  _153
REMARK   61  A    between atoms: _156  and  _157
REMARK   62  A    between atoms: _162  and  _164
REMARK   63  A    between atoms: _164  and  _165
REMARK   64  A    between atoms: _164  and  _167
REMARK   65  A    between atoms: _167  and  _168
REMARK   66  A    between atoms: _173  and  _175
REMARK   67  A    between atoms: _175  and  _176
REMARK   68  A    between atoms: _175  and  _178
REMARK   69  A    between atoms: _178  and  _179
REMARK   70  A    between atoms: _182  and  _184
REMARK   71  A    between atoms: _184  and  _185
REMARK   72  A    between atoms: _184  and  _187
REMARK   73  A    between atoms: _187  and  _188
REMARK   74  A    between atoms: _193  and  _195
REMARK   75  A    between atoms: _195  and  _196
REMARK   76  A    between atoms: _195  and  _198
REMARK   77  A    between atoms: _198  and  _199
REMARK   78  A    between atoms: _205  and  _207
REMARK   79  A    between atoms: _207  and  _208
REMARK   80  A    between atoms: _207  and  _210
REMARK   81  A    between atoms: _210  and  _211
REMARK   82  A    between atoms: _217  and  _219
REMARK   83  A    between atoms: _219  and  _220
REMARK   84  A    between atoms: _219  and  _222
REMARK   85  A    between atoms: _222  and  _223
REMARK   86  A    between atoms: _223  and  _224
REMARK   87  A    between atoms: _227  and  _229
REMARK   88  A    between atoms: _229  and  _230
REMARK   89  A    between atoms: _229  and  _232
REMARK   90  A    between atoms: _232  and  _233
REMARK   91  A    between atoms: _233  and  _234
REMARK   92  A    between atoms: _234  and  _235
REMARK   93  A    between atoms: _244  and  _246
REMARK   94  A    between atoms: _246  and  _247
REMARK   95  A    between atoms: _246  and  _249
REMARK   96  A    between atoms: _249  and  _250
REMARK   97  A    between atoms: _250  and  _251
REMARK   98  A    between atoms: _254  and  _256
REMARK   99  A    between atoms: _256  and  _257
REMARK  100  A    between atoms: _256  and  _259
REMARK  101  A    between atoms: _259  and  _260
REMARK  102  A    between atoms: _265  and  _267
REMARK  103  A    between atoms: _267  and  _268
REMARK  104  A    between atoms: _267  and  _270
REMARK  105  A    between atoms: _270  and  _271
REMARK  106  A    between atoms: _274  and  _276
REMARK  107  A    between atoms: _276  and  _277
REMARK  108  A    between atoms: _276  and  _279
REMARK  109  A    between atoms: _279  and  _280
REMARK  110  A    between atoms: _283  and  _285
REMARK  111  A    between atoms: _285  and  _286
REMARK  112  A    between atoms: _285  and  _288
REMARK  113  A    between atoms: _288  and  _289
REMARK  114  A    between atoms: _294  and  _296
REMARK  115  A    between atoms: _296  and  _297
REMARK  116  A    between atoms: _296  and  _299
REMARK  117  A    between atoms: _299  and  _300
REMARK  118  A    between atoms: _303  and  _305
REMARK  119  A    between atoms: _305  and  _306
REMARK  120  A    between atoms: _305  and  _308
REMARK  121  A    between atoms: _308  and  _309
REMARK  122  A    between atoms: _314  and  _316
REMARK  123  A    between atoms: _316  and  _317
REMARK  124  A    between atoms: _316  and  _319
REMARK  125  A    between atoms: _319  and  _320
REMARK  126  A    between atoms: _325  and  _327
REMARK  127  A    between atoms: _327  and  _328
REMARK  128  A    between atoms: _327  and  _330
REMARK  129  A    between atoms: _330  and  _331
REMARK  130  A    between atoms: _334  and  _336
REMARK  131  A    between atoms: _336  and  _337
REMARK  132  A    between atoms: _336  and  _339
REMARK  133  A    between atoms: _342  and  _344
REMARK  134  A    between atoms: _344  and  _345
REMARK  135  A    between atoms: _344  and  _347
REMARK  136  A    between atoms: _347  and  _348
REMARK  137  A    between atoms: _351  and  _353
REMARK  138  A    between atoms: _353  and  _354
REMARK  139  A    between atoms: _353  and  _356
REMARK  140  A    between atoms: _356  and  _357
REMARK  141  A    between atoms: _357  and  _358
REMARK  142  A    between atoms: _361  and  _363
REMARK  143  A    between atoms: _363  and  _364
REMARK  144  A    between atoms: _367  and  _369
REMARK  145  A    between atoms: _369  and  _370
REMARK  146  A    between atoms: _369  and  _372
REMARK  147  A    between atoms: _372  and  _373
REMARK  148  A    between atoms: _376  and  _378
REMARK  149  A    between atoms: _378  and  _379
REMARK  150  A    between atoms: _378  and  _381
REMARK  151  A    between atoms: _381  and  _382
REMARK  152  A    between atoms: _382  and  _383
REMARK  153  A    between atoms: _386  and  _388
REMARK  154  A    between atoms: _388  and  _389
REMARK  155  A    between atoms: _388  and  _391
REMARK  156  A    between atoms: _391  and  _392
REMARK  157  A    between atoms: _397  and  _399
REMARK  158  A    between atoms: _399  and  _400
REMARK  159  A    between atoms: _402  and  _404
REMARK  160  A    between atoms: _404  and  _405
REMARK  161  A    between atoms: _404  and  _407
REMARK  162  A    between atoms: _410  and  _412
REMARK  163  A    between atoms: _412  and  _413
REMARK  164  A    between atoms: _416  and  _418
REMARK  165  A    between atoms: _418  and  _419
REMARK  166  A    between atoms: _418  and  _421
REMARK  167  A    between atoms: _421  and  _422
REMARK  168  A    between atoms: _427  and  _429
REMARK  169  A    between atoms: _429  and  _430
REMARK  170  A    between atoms: _429  and  _432
REMARK  171  A    between atoms: _432  and  _433
REMARK  172  A    between atoms: _433  and  _434
REMARK  173  A    between atoms: _434  and  _435
REMARK  174  A    between atoms: _435  and  _436
REMARK  175  A    between atoms: _440  and  _442
REMARK  176  A    between atoms: _442  and  _443
REMARK  177  A    between atoms: _442  and  _445
REMARK  178  A    between atoms: _445  and  _446
REMARK  179  A    between atoms: _449  and  _451
REMARK  180  A    between atoms: _451  and  _452
REMARK  181  A    between atoms: _451  and  _454
REMARK  182  A    between atoms: _454  and  _455
REMARK  183  A    between atoms: _460  and  _462
REMARK  184  A    between atoms: _462  and  _463
REMARK  185  A    between atoms: _465  and  _467
REMARK  186  A    between atoms: _467  and  _468
REMARK  187  A    between atoms: _467  and  _470
REMARK  188  A    between atoms: _470  and  _471
REMARK  189  A    between atoms: _471  and  _472
REMARK  190  A    between atoms: _472  and  _473
REMARK  191  A    between atoms: _473  and  _474
REMARK  192  A    between atoms: _478  and  _480
REMARK  193  A    between atoms: _480  and  _481
REMARK  194  A    between atoms: _480  and  _483
REMARK  195  A    between atoms: _483  and  _484
REMARK  196  A    between atoms: _484  and  _485
REMARK  197  A    between atoms: _485  and  _486
REMARK  198  A    between atoms: _495  and  _497
REMARK  199  A    between atoms: _497  and  _498
REMARK  200  A    between atoms: _497  and  _500
REMARK  201  A    between atoms: _500  and  _501
REMARK  202  A    between atoms: _506  and  _507
REMARK  203  A    between atoms: _509  and  _511
REMARK  204  A    between atoms: _511  and  _512
REMARK  205  A    between atoms: _511  and  _514
REMARK  206  A    between atoms: _514  and  _515
REMARK  207  A    between atoms: _515  and  _516
REMARK  208  A    between atoms: _516  and  _517
REMARK  209  A    between atoms: _517  and  _518
REMARK  210  A    between atoms: _522  and  _524
REMARK  211  A    between atoms: _524  and  _525
REMARK  212  A    between atoms: _524  and  _527
REMARK  213  A    between atoms: _527  and  _528
REMARK  214  A    between atoms: _530  and  _532
REMARK  215  A    between atoms: _532  and  _533
REMARK  216  A    between atoms: _532  and  _535
REMARK  217  A    between atoms: _535  and  _536
REMARK  218  A    between atoms: _539  and  _541
REMARK  219  A    between atoms: _541  and  _542
REMARK  220  A    between atoms: _541  and  _544
REMARK  221  A    between atoms: _544  and  _545
REMARK  222  A    between atoms: _545  and  _546
REMARK  223  A    between atoms: _549  and  _551
REMARK  224  A    between atoms: _551  and  _552
REMARK  225  A    between atoms: _555  and  _557
REMARK  226  A    between atoms: _557  and  _558
REMARK  227  A    between atoms: _557  and  _560
REMARK  228  A    between atoms: _560  and  _561
REMARK  229  A    between atoms: _563  and  _565
REMARK  230  A    between atoms: _565  and  _566
REMARK  231  A    between atoms: _568  and  _570
REMARK  232  A    between atoms: _570  and  _571
REMARK  233  A    between atoms: _570  and  _573
REMARK  234  A    between atoms: _573  and  _574
REMARK  235  A    between atoms: _577  and  _579
REMARK  236  A    between atoms: _579  and  _580
REMARK  237  A    between atoms: _582  and  _584
REMARK  238  A    between atoms: _584  and  _585
REMARK  239  A    between atoms: _584  and  _587
REMARK  240  A    between atoms: _587  and  _588
REMARK  241  A    between atoms: _593  and  _595
REMARK  242  A    between atoms: _595  and  _596
REMARK  243  A    between atoms: _595  and  _598
REMARK  244  A    between atoms: _598  and  _599
REMARK  245  A    between atoms: _599  and  _600
REMARK  246  A    between atoms: _607  and  _608
REMARK  247  A    between atoms: _608  and  _624
REMARK  248  A    between atoms: _609  and  _611
REMARK  249  A    between atoms: _611  and  _612
REMARK  250  A    between atoms: _612  and  _613
REMARK  251  A    between atoms: _617  and  _619
REMARK  252  A    between atoms: _619  and  _620
REMARK  253  A    between atoms: _619  and  _627
REMARK  254  A    between atoms: _620  and  _621
REMARK  255  A    between atoms: _621  and  _622
REMARK  256  A    between atoms: _622  and  _623
REMARK  257  A    between atoms: _623  and  _624
REMARK  258  A    between atoms: _629  and  _631
REMARK  259  A    between atoms: _631  and  _632
REMARK  260  A    between atoms: _631  and  _634
REMARK  261  A    between atoms: _634  and  _635
REMARK  262  A    between atoms: _638  and  _640
REMARK  263  A    between atoms: _640  and  _641
REMARK  264  A    between atoms: _643  and  _645
REMARK  265  A    between atoms: _645  and  _646
REMARK  266  A    between atoms: _649  and  _651
REMARK  267  A    between atoms: _651  and  _652
REMARK  268  A    between atoms: _651  and  _654
REMARK  269  A    between atoms: _654  and  _655
REMARK  270  A    between atoms: _660  and  _661
REMARK                            x       y       z     vdW  Elec       q    Type
REMARK                         _______ _______ _______ _____ _____    ______ ____
ROOT
ATOM      1  O   HOH     1      36.874  19.483  37.097  0.00  0.00    +0.000 OA
ENDROOT
TORSDOF 0
REMARK  Name = ../refined-set-2016/2qrm/2qrm_pocket.pdb
REMARK  270 active torsions:
REMARK  status: ('A' for Active; 'I' for Inactive)
REMARK    1  A    between atoms: _1  and  _3
REMARK    2  A    between atoms: _3  and  _4
REMARK    3  A    between atoms: _3  and  _6
REMARK    4  A    between atoms: _6  and  _7
REMARK    5  A    between atoms: _12  and  _13
REMARK    6  A    between atoms: _15  and  _17
REMARK    7  A    between atoms: _17  and  _18
REMARK    8  A    between atoms: _17  and  _20
REMARK    9  A    between atoms: _20  and  _21
REMARK   10  A    between atoms: _24  and  _26
REMARK   11  A    between atoms: _26  and  _27
REMARK   12  A    between atoms: _26  and  _29
REMARK   13  A    between atoms: _29  and  _30
REMARK   14  A    between atoms: _30  and  _31
REMARK   15  A    between atoms: _34  and  _36
REMARK   16  A    between atoms: _36  and  _37
REMARK   17  A    between atoms: _39  and  _41
REMARK   18  A    between atoms: _41  and  _42
REMARK   19  A    between atoms: _41  and  _44
REMARK   20  A    between atoms: _44  and  _45
REMARK   21  A    between atoms: _50  and  _52
REMARK   22  A    between atoms: _52  and  _53
REMARK   23  A    between atoms: _55  and  _57
REMARK   24  A    between atoms: _57  and  _58
REMARK   25  A    between atoms: _60  and  _62
REMARK   26  A    between atoms: _62  and  _63
REMARK   27  A    between atoms: _62  and  _65
REMARK   28  A    between atoms: _65  and  _66
REMARK   29  A    between atoms: _69  and  _71
REMARK   30  A    between atoms: _71  and  _72
REMARK   31  A    between atoms: _74  and  _76
REMARK   32  A    between atoms: _76  and  _77
REMARK   33  A    between atoms: _76  and  _79
REMARK   34  A    between atoms: _79  and  _80
REMARK   35  A    between atoms: _80  and  _81
REMARK   36  A    between atoms: _81  and  _82
REMARK   37  A    between atoms: _91  and  _93
REMARK   38  A    between atoms: _93  and  _94
REMARK   39  A    between atoms: _93  and  _96
REMARK   40  A    between atoms: _96  and  _97
REMARK   41  A    between atoms: _100  and  _102
REMARK   42  A    between atoms: _102  and  _103
REMARK   43  A    between atoms: _106  and  _108
REMARK   44  A    between atoms: _108  and  _109
REMARK   45  A    between atoms: _108  and  _111
REMARK   46  A    between atoms: _111  and  _112
REMARK   47  A    between atoms: _118  and  _120
REMARK   48  A    between atoms: _120  and  _121
REMARK   49  A    between atoms: _120  and  _123
REMARK   50  A    between atoms: _123  and  _124
REMARK   51  A    between atoms: _129  and  _130
REMARK   52  A    between atoms: _132  and  _134
REMARK   53  A    between atoms: _134  and  _135
REMARK   54  A    between atoms: _134  and  _137
REMARK   55  A    between atoms: _137  and  _138
REMARK   56  A    between atoms: _141  and  _143
REMARK   57  A    between atoms: _143  and  _144
REMARK   58  A    between atoms: _143  and  _146
REMARK   59  A    between atoms: _146  and  _147
REMARK   60  A    between atoms: _152  and  _153
REMARK   61  A    between atoms: _156  and  _157
REMARK   62  A    between atoms: _162  and  _164
REMARK   63  A    between atoms: _164  and  _165
REMARK   64  A    between atoms: _164  and  _167
REMARK   65  A    between atoms: _167  and  _168
REMARK   66  A    between atoms: _173  and  _175
REMARK   67  A    between atoms: _175  and  _176
REMARK   68  A    between atoms: _175  and  _178
REMARK   69  A    between atoms: _178  and  _179
REMARK   70  A    between atoms: _182  and  _184
REMARK   71  A    between atoms: _184  and  _185
REMARK   72  A    between atoms: _184  and  _187
REMARK   73  A    between atoms: _187  and  _188
REMARK   74  A    between atoms: _193  and  _195
REMARK   75  A    between atoms: _195  and  _196
REMARK   76  A    between atoms: _195  and  _198
REMARK   77  A    between atoms: _198  and  _199
REMARK   78  A    between atoms: _205  and  _207
REMARK   79  A    between atoms: _207  and  _208
REMARK   80  A    between atoms: _207  and  _210
REMARK   81  A    between atoms: _210  and  _211
REMARK   82  A    between atoms: _217  and  _219
REMARK   83  A    between atoms: _219  and  _220
REMARK   84  A    between atoms: _219  and  _222
REMARK   85  A    between atoms: _222  and  _223
REMARK   86  A    between atoms: _223  and  _224
REMARK   87  A    between atoms: _227  and  _229
REMARK   88  A    between atoms: _229  and  _230
REMARK   89  A    between atoms: _229  and  _232
REMARK   90  A    between atoms: _232  and  _233
REMARK   91  A    between atoms: _233  and  _234
REMARK   92  A    between atoms: _234  and  _235
REMARK   93  A    between atoms: _244  and  _246
REMARK   94  A    between atoms: _246  and  _247
REMARK   95  A    between atoms: _246  and  _249
REMARK   96  A    between atoms: _249  and  _250
REMARK   97  A    between atoms: _250  and  _251
REMARK   98  A    between atoms: _254  and  _256
REMARK   99  A    between atoms: _256  and  _257
REMARK  100  A    between atoms: _256  and  _259
REMARK  101  A    between atoms: _259  and  _260
REMARK  102  A    between atoms: _265  and  _267
REMARK  103  A    between atoms: _267  and  _268
REMARK  104  A    between atoms: _267  and  _270
REMARK  105  A    between atoms: _270  and  _271
REMARK  106  A    between atoms: _274  and  _276
REMARK  107  A    between atoms: _276  and  _277
REMARK  108  A    between atoms: _276  and  _279
REMARK  109  A    between atoms: _279  and  _280
REMARK  110  A    between atoms: _283  and  _285
REMARK  111  A    between atoms: _285  and  _286
REMARK  112  A    between atoms: _285  and  _288
REMARK  113  A    between atoms: _288  and  _289
REMARK  114  A    between atoms: _294  and  _296
REMARK  115  A    between atoms: _296  and  _297
REMARK  116  A    between atoms: _296  and  _299
REMARK  117  A    between atoms: _299  and  _300
REMARK  118  A    between atoms: _303  and  _305
REMARK  119  A    between atoms: _305  and  _306
REMARK  120  A    between atoms: _305  and  _308
REMARK  121  A    between atoms: _308  and  _309
REMARK  122  A    between atoms: _314  and  _316
REMARK  123  A    between atoms: _316  and  _317
REMARK  124  A    between atoms: _316  and  _319
REMARK  125  A    between atoms: _319  and  _320
REMARK  126  A    between atoms: _325  and  _327
REMARK  127  A    between atoms: _327  and  _328
REMARK  128  A    between atoms: _327  and  _330
REMARK  129  A    between atoms: _330  and  _331
REMARK  130  A    between atoms: _334  and  _336
REMARK  131  A    between atoms: _336  and  _337
REMARK  132  A    between atoms: _336  and  _339
REMARK  133  A    between atoms: _342  and  _344
REMARK  134  A    between atoms: _344  and  _345
REMARK  135  A    between atoms: _344  and  _347
REMARK  136  A    between atoms: _347  and  _348
REMARK  137  A    between atoms: _351  and  _353
REMARK  138  A    between atoms: _353  and  _354
REMARK  139  A    between atoms: _353  and  _356
REMARK  140  A    between atoms: _356  and  _357
REMARK  141  A    between atoms: _357  and  _358
REMARK  142  A    between atoms: _361  and  _363
REMARK  143  A    between atoms: _363  and  _364
REMARK  144  A    between atoms: _367  and  _369
REMARK  145  A    between atoms: _369  and  _370
REMARK  146  A    between atoms: _369  and  _372
REMARK  147  A    between atoms: _372  and  _373
REMARK  148  A    between atoms: _376  and  _378
REMARK  149  A    between atoms: _378  and  _379
REMARK  150  A    between atoms: _378  and  _381
REMARK  151  A    between atoms: _381  and  _382
REMARK  152  A    between atoms: _382  and  _383
REMARK  153  A    between atoms: _386  and  _388
REMARK  154  A    between atoms: _388  and  _389
REMARK  155  A    between atoms: _388  and  _391
REMARK  156  A    between atoms: _391  and  _392
REMARK  157  A    between atoms: _397  and  _399
REMARK  158  A    between atoms: _399  and  _400
REMARK  159  A    between atoms: _402  and  _404
REMARK  160  A    between atoms: _404  and  _405
REMARK  161  A    between atoms: _404  and  _407
REMARK  162  A    between atoms: _410  and  _412
REMARK  163  A    between atoms: _412  and  _413
REMARK  164  A    between atoms: _416  and  _418
REMARK  165  A    between atoms: _418  and  _419
REMARK  166  A    between atoms: _418  and  _421
REMARK  167  A    between atoms: _421  and  _422
REMARK  168  A    between atoms: _427  and  _429
REMARK  169  A    between atoms: _429  and  _430
REMARK  170  A    between atoms: _429  and  _432
REMARK  171  A    between atoms: _432  and  _433
REMARK  172  A    between atoms: _433  and  _434
REMARK  173  A    between atoms: _434  and  _435
REMARK  174  A    between atoms: _435  and  _436
REMARK  175  A    between atoms: _440  and  _442
REMARK  176  A    between atoms: _442  and  _443
REMARK  177  A    between atoms: _442  and  _445
REMARK  178  A    between atoms: _445  and  _446
REMARK  179  A    between atoms: _449  and  _451
REMARK  180  A    between atoms: _451  and  _452
REMARK  181  A    between atoms: _451  and  _454
REMARK  182  A    between atoms: _454  and  _455
REMARK  183  A    between atoms: _460  and  _462
REMARK  184  A    between atoms: _462  and  _463
REMARK  185  A    between atoms: _465  and  _467
REMARK  186  A    between atoms: _467  and  _468
REMARK  187  A    between atoms: _467  and  _470
REMARK  188  A    between atoms: _470  and  _471
REMARK  189  A    between atoms: _471  and  _472
REMARK  190  A    between atoms: _472  and  _473
REMARK  191  A    between atoms: _473  and  _474
REMARK  192  A    between atoms: _478  and  _480
REMARK  193  A    between atoms: _480  and  _481
REMARK  194  A    between atoms: _480  and  _483
REMARK  195  A    between atoms: _483  and  _484
REMARK  196  A    between atoms: _484  and  _485
REMARK  197  A    between atoms: _485  and  _486
REMARK  198  A    between atoms: _495  and  _497
REMARK  199  A    between atoms: _497  and  _498
REMARK  200  A    between atoms: _497  and  _500
REMARK  201  A    between atoms: _500  and  _501
REMARK  202  A    between atoms: _506  and  _507
REMARK  203  A    between atoms: _509  and  _511
REMARK  204  A    between atoms: _511  and  _512
REMARK  205  A    between atoms: _511  and  _514
REMARK  206  A    between atoms: _514  and  _515
REMARK  207  A    between atoms: _515  and  _516
REMARK  208  A    between atoms: _516  and  _517
REMARK  209  A    between atoms: _517  and  _518
REMARK  210  A    between atoms: _522  and  _524
REMARK  211  A    between atoms: _524  and  _525
REMARK  212  A    between atoms: _524  and  _527
REMARK  213  A    between atoms: _527  and  _528
REMARK  214  A    between atoms: _530  and  _532
REMARK  215  A    between atoms: _532  and  _533
REMARK  216  A    between atoms: _532  and  _535
REMARK  217  A    between atoms: _535  and  _536
REMARK  218  A    between atoms: _539  and  _541
REMARK  219  A    between atoms: _541  and  _542
REMARK  220  A    between atoms: _541  and  _544
REMARK  221  A    between atoms: _544  and  _545
REMARK  222  A    between atoms: _545  and  _546
REMARK  223  A    between atoms: _549  and  _551
REMARK  224  A    between atoms: _551  and  _552
REMARK  225  A    between atoms: _555  and  _557
REMARK  226  A    between atoms: _557  and  _558
REMARK  227  A    between atoms: _557  and  _560
REMARK  228  A    between atoms: _560  and  _561
REMARK  229  A    between atoms: _563  and  _565
REMARK  230  A    between atoms: _565  and  _566
REMARK  231  A    between atoms: _568  and  _570
REMARK  232  A    between atoms: _570  and  _571
REMARK  233  A    between atoms: _570  and  _573
REMARK  234  A    between atoms: _573  and  _574
REMARK  235  A    between atoms: _577  and  _579
REMARK  236  A    between atoms: _579  and  _580
REMARK  237  A    between atoms: _582  and  _584
REMARK  238  A    between atoms: _584  and  _585
REMARK  239  A    between atoms: _584  and  _587
REMARK  240  A    between atoms: _587  and  _588
REMARK  241  A    between atoms: _593  and  _595
REMARK  242  A    between atoms: _595  and  _596
REMARK  243  A    between atoms: _595  and  _598
REMARK  244  A    between atoms: _598  and  _599
REMARK  245  A    between atoms: _599  and  _600
REMARK  246  A    between atoms: _607  and  _608
REMARK  247  A    between atoms: _608  and  _624
REMARK  248  A    between atoms: _609  and  _611
REMARK  249  A    between atoms: _611  and  _612
REMARK  250  A    between atoms: _612  and  _613
REMARK  251  A    between atoms: _617  and  _619
REMARK  252  A    between atoms: _619  and  _620
REMARK  253  A    between atoms: _619  and  _627
REMARK  254  A    between atoms: _620  and  _621
REMARK  255  A    between atoms: _621  and  _622
REMARK  256  A    between atoms: _622  and  _623
REMARK  257  A    between atoms: _623  and  _624
REMARK  258  A    between atoms: _629  and  _631
REMARK  259  A    between atoms: _631  and  _632
REMARK  260  A    between atoms: _631  and  _634
REMARK  261  A    between atoms: _634  and  _635
REMARK  262  A    between atoms: _638  and  _640
REMARK  263  A    between atoms: _640  and  _641
REMARK  264  A    between atoms: _643  and  _645
REMARK  265  A    between atoms: _645  and  _646
REMARK  266  A    between atoms: _649  and  _651
REMARK  267  A    between atoms: _651  and  _652
REMARK  268  A    between atoms: _651  and  _654
REMARK  269  A    between atoms: _654  and  _655
REMARK  270  A    between atoms: _660  and  _661
REMARK                            x       y       z     vdW  Elec       q    Type
REMARK                         _______ _______ _______ _____ _____    ______ ____
ROOT
ATOM      1  O   HOH     1      31.021  23.994  33.419  0.00  0.00    +0.000 OA
ENDROOT
TORSDOF 0
REMARK  Name = ../refined-set-2016/2qrm/2qrm_pocket.pdb
REMARK  270 active torsions:
REMARK  status: ('A' for Active; 'I' for Inactive)
REMARK    1  A    between atoms: _1  and  _3
REMARK    2  A    between atoms: _3  and  _4
REMARK    3  A    between atoms: _3  and  _6
REMARK    4  A    between atoms: _6  and  _7
REMARK    5  A    between atoms: _12  and  _13
REMARK    6  A    between atoms: _15  and  _17
REMARK    7  A    between atoms: _17  and  _18
REMARK    8  A    between atoms: _17  and  _20
REMARK    9  A    between atoms: _20  and  _21
REMARK   10  A    between atoms: _24  and  _26
REMARK   11  A    between atoms: _26  and  _27
REMARK   12  A    between atoms: _26  and  _29
REMARK   13  A    between atoms: _29  and  _30
REMARK   14  A    between atoms: _30  and  _31
REMARK   15  A    between atoms: _34  and  _36
REMARK   16  A    between atoms: _36  and  _37
REMARK   17  A    between atoms: _39  and  _41
REMARK   18  A    between atoms: _41  and  _42
REMARK   19  A    between atoms: _41  and  _44
REMARK   20  A    between atoms: _44  and  _45
REMARK   21  A    between atoms: _50  and  _52
REMARK   22  A    between atoms: _52  and  _53
REMARK   23  A    between atoms: _55  and  _57
REMARK   24  A    between atoms: _57  and  _58
REMARK   25  A    between atoms: _60  and  _62
REMARK   26  A    between atoms: _62  and  _63
REMARK   27  A    between atoms: _62  and  _65
REMARK   28  A    between atoms: _65  and  _66
REMARK   29  A    between atoms: _69  and  _71
REMARK   30  A    between atoms: _71  and  _72
REMARK   31  A    between atoms: _74  and  _76
REMARK   32  A    between atoms: _76  and  _77
REMARK   33  A    between atoms: _76  and  _79
REMARK   34  A    between atoms: _79  and  _80
REMARK   35  A    between atoms: _80  and  _81
REMARK   36  A    between atoms: _81  and  _82
REMARK   37  A    between atoms: _91  and  _93
REMARK   38  A    between atoms: _93  and  _94
REMARK   39  A    between atoms: _93  and  _96
REMARK   40  A    between atoms: _96  and  _97
REMARK   41  A    between atoms: _100  and  _102
REMARK   42  A    between atoms: _102  and  _103
REMARK   43  A    between atoms: _106  and  _108
REMARK   44  A    between atoms: _108  and  _109
REMARK   45  A    between atoms: _108  and  _111
REMARK   46  A    between atoms: _111  and  _112
REMARK   47  A    between atoms: _118  and  _120
REMARK   48  A    between atoms: _120  and  _121
REMARK   49  A    between atoms: _120  and  _123
REMARK   50  A    between atoms: _123  and  _124
REMARK   51  A    between atoms: _129  and  _130
REMARK   52  A    between atoms: _132  and  _134
REMARK   53  A    between atoms: _134  and  _135
REMARK   54  A    between atoms: _134  and  _137
REMARK   55  A    between atoms: _137  and  _138
REMARK   56  A    between atoms: _141  and  _143
REMARK   57  A    between atoms: _143  and  _144
REMARK   58  A    between atoms: _143  and  _146
REMARK   59  A    between atoms: _146  and  _147
REMARK   60  A    between atoms: _152  and  _153
REMARK   61  A    between atoms: _156  and  _157
REMARK   62  A    between atoms: _162  and  _164
REMARK   63  A    between atoms: _164  and  _165
REMARK   64  A    between atoms: _164  and  _167
REMARK   65  A    between atoms: _167  and  _168
REMARK   66  A    between atoms: _173  and  _175
REMARK   67  A    between atoms: _175  and  _176
REMARK   68  A    between atoms: _175  and  _178
REMARK   69  A    between atoms: _178  and  _179
REMARK   70  A    between atoms: _182  and  _184
REMARK   71  A    between atoms: _184  and  _185
REMARK   72  A    between atoms: _184  and  _187
REMARK   73  A    between atoms: _187  and  _188
REMARK   74  A    between atoms: _193  and  _195
REMARK   75  A    between atoms: _195  and  _196
REMARK   76  A    between atoms: _195  and  _198
REMARK   77  A    between atoms: _198  and  _199
REMARK   78  A    between atoms: _205  and  _207
REMARK   79  A    between atoms: _207  and  _208
REMARK   80  A    between atoms: _207  and  _210
REMARK   81  A    between atoms: _210  and  _211
REMARK   82  A    between atoms: _217  and  _219
REMARK   83  A    between atoms: _219  and  _220
REMARK   84  A    between atoms: _219  and  _222
REMARK   85  A    between atoms: _222  and  _223
REMARK   86  A    between atoms: _223  and  _224
REMARK   87  A    between atoms: _227  and  _229
REMARK   88  A    between atoms: _229  and  _230
REMARK   89  A    between atoms: _229  and  _232
REMARK   90  A    between atoms: _232  and  _233
REMARK   91  A    between atoms: _233  and  _234
REMARK   92  A    between atoms: _234  and  _235
REMARK   93  A    between atoms: _244  and  _246
REMARK   94  A    between atoms: _246  and  _247
REMARK   95  A    between atoms: _246  and  _249
REMARK   96  A    between atoms: _249  and  _250
REMARK   97  A    between atoms: _250  and  _251
REMARK   98  A    between atoms: _254  and  _256
REMARK   99  A    between atoms: _256  and  _257
REMARK  100  A    between atoms: _256  and  _259
REMARK  101  A    between atoms: _259  and  _260
REMARK  102  A    between atoms: _265  and  _267
REMARK  103  A    between atoms: _267  and  _268
REMARK  104  A    between atoms: _267  and  _270
REMARK  105  A    between atoms: _270  and  _271
REMARK  106  A    between atoms: _274  and  _276
REMARK  107  A    between atoms: _276  and  _277
REMARK  108  A    between atoms: _276  and  _279
REMARK  109  A    between atoms: _279  and  _280
REMARK  110  A    between atoms: _283  and  _285
REMARK  111  A    between atoms: _285  and  _286
REMARK  112  A    between atoms: _285  and  _288
REMARK  113  A    between atoms: _288  and  _289
REMARK  114  A    between atoms: _294  and  _296
REMARK  115  A    between atoms: _296  and  _297
REMARK  116  A    between atoms: _296  and  _299
REMARK  117  A    between atoms: _299  and  _300
REMARK  118  A    between atoms: _303  and  _305
REMARK  119  A    between atoms: _305  and  _306
REMARK  120  A    between atoms: _305  and  _308
REMARK  121  A    between atoms: _308  and  _309
REMARK  122  A    between atoms: _314  and  _316
REMARK  123  A    between atoms: _316  and  _317
REMARK  124  A    between atoms: _316  and  _319
REMARK  125  A    between atoms: _319  and  _320
REMARK  126  A    between atoms: _325  and  _327
REMARK  127  A    between atoms: _327  and  _328
REMARK  128  A    between atoms: _327  and  _330
REMARK  129  A    between atoms: _330  and  _331
REMARK  130  A    between atoms: _334  and  _336
REMARK  131  A    between atoms: _336  and  _337
REMARK  132  A    between atoms: _336  and  _339
REMARK  133  A    between atoms: _342  and  _344
REMARK  134  A    between atoms: _344  and  _345
REMARK  135  A    between atoms: _344  and  _347
REMARK  136  A    between atoms: _347  and  _348
REMARK  137  A    between atoms: _351  and  _353
REMARK  138  A    between atoms: _353  and  _354
REMARK  139  A    between atoms: _353  and  _356
REMARK  140  A    between atoms: _356  and  _357
REMARK  141  A    between atoms: _357  and  _358
REMARK  142  A    between atoms: _361  and  _363
REMARK  143  A    between atoms: _363  and  _364
REMARK  144  A    between atoms: _367  and  _369
REMARK  145  A    between atoms: _369  and  _370
REMARK  146  A    between atoms: _369  and  _372
REMARK  147  A    between atoms: _372  and  _373
REMARK  148  A    between atoms: _376  and  _378
REMARK  149  A    between atoms: _378  and  _379
REMARK  150  A    between atoms: _378  and  _381
REMARK  151  A    between atoms: _381  and  _382
REMARK  152  A    between atoms: _382  and  _383
REMARK  153  A    between atoms: _386  and  _388
REMARK  154  A    between atoms: _388  and  _389
REMARK  155  A    between atoms: _388  and  _391
REMARK  156  A    between atoms: _391  and  _392
REMARK  157  A    between atoms: _397  and  _399
REMARK  158  A    between atoms: _399  and  _400
REMARK  159  A    between atoms: _402  and  _404
REMARK  160  A    between atoms: _404  and  _405
REMARK  161  A    between atoms: _404  and  _407
REMARK  162  A    between atoms: _410  and  _412
REMARK  163  A    between atoms: _412  and  _413
REMARK  164  A    between atoms: _416  and  _418
REMARK  165  A    between atoms: _418  and  _419
REMARK  166  A    between atoms: _418  and  _421
REMARK  167  A    between atoms: _421  and  _422
REMARK  168  A    between atoms: _427  and  _429
REMARK  169  A    between atoms: _429  and  _430
REMARK  170  A    between atoms: _429  and  _432
REMARK  171  A    between atoms: _432  and  _433
REMARK  172  A    between atoms: _433  and  _434
REMARK  173  A    between atoms: _434  and  _435
REMARK  174  A    between atoms: _435  and  _436
REMARK  175  A    between atoms: _440  and  _442
REMARK  176  A    between atoms: _442  and  _443
REMARK  177  A    between atoms: _442  and  _445
REMARK  178  A    between atoms: _445  and  _446
REMARK  179  A    between atoms: _449  and  _451
REMARK  180  A    between atoms: _451  and  _452
REMARK  181  A    between atoms: _451  and  _454
REMARK  182  A    between atoms: _454  and  _455
REMARK  183  A    between atoms: _460  and  _462
REMARK  184  A    between atoms: _462  and  _463
REMARK  185  A    between atoms: _465  and  _467
REMARK  186  A    between atoms: _467  and  _468
REMARK  187  A    between atoms: _467  and  _470
REMARK  188  A    between atoms: _470  and  _471
REMARK  189  A    between atoms: _471  and  _472
REMARK  190  A    between atoms: _472  and  _473
REMARK  191  A    between atoms: _473  and  _474
REMARK  192  A    between atoms: _478  and  _480
REMARK  193  A    between atoms: _480  and  _481
REMARK  194  A    between atoms: _480  and  _483
REMARK  195  A    between atoms: _483  and  _484
REMARK  196  A    between atoms: _484  and  _485
REMARK  197  A    between atoms: _485  and  _486
REMARK  198  A    between atoms: _495  and  _497
REMARK  199  A    between atoms: _497  and  _498
REMARK  200  A    between atoms: _497  and  _500
REMARK  201  A    between atoms: _500  and  _501
REMARK  202  A    between atoms: _506  and  _507
REMARK  203  A    between atoms: _509  and  _511
REMARK  204  A    between atoms: _511  and  _512
REMARK  205  A    between atoms: _511  and  _514
REMARK  206  A    between atoms: _514  and  _515
REMARK  207  A    between atoms: _515  and  _516
REMARK  208  A    between atoms: _516  and  _517
REMARK  209  A    between atoms: _517  and  _518
REMARK  210  A    between atoms: _522  and  _524
REMARK  211  A    between atoms: _524  and  _525
REMARK  212  A    between atoms: _524  and  _527
REMARK  213  A    between atoms: _527  and  _528
REMARK  214  A    between atoms: _530  and  _532
REMARK  215  A    between atoms: _532  and  _533
REMARK  216  A    between atoms: _532  and  _535
REMARK  217  A    between atoms: _535  and  _536
REMARK  218  A    between atoms: _539  and  _541
REMARK  219  A    between atoms: _541  and  _542
REMARK  220  A    between atoms: _541  and  _544
REMARK  221  A    between atoms: _544  and  _545
REMARK  222  A    between atoms: _545  and  _546
REMARK  223  A    between atoms: _549  and  _551
REMARK  224  A    between atoms: _551  and  _552
REMARK  225  A    between atoms: _555  and  _557
REMARK  226  A    between atoms: _557  and  _558
REMARK  227  A    between atoms: _557  and  _560
REMARK  228  A    between atoms: _560  and  _561
REMARK  229  A    between atoms: _563  and  _565
REMARK  230  A    between atoms: _565  and  _566
REMARK  231  A    between atoms: _568  and  _570
REMARK  232  A    between atoms: _570  and  _571
REMARK  233  A    between atoms: _570  and  _573
REMARK  234  A    between atoms: _573  and  _574
REMARK  235  A    between atoms: _577  and  _579
REMARK  236  A    between atoms: _579  and  _580
REMARK  237  A    between atoms: _582  and  _584
REMARK  238  A    between atoms: _584  and  _585
REMARK  239  A    between atoms: _584  and  _587
REMARK  240  A    between atoms: _587  and  _588
REMARK  241  A    between atoms: _593  and  _595
REMARK  242  A    between atoms: _595  and  _596
REMARK  243  A    between atoms: _595  and  _598
REMARK  244  A    between atoms: _598  and  _599
REMARK  245  A    between atoms: _599  and  _600
REMARK  246  A    between atoms: _607  and  _608
REMARK  247  A    between atoms: _608  and  _624
REMARK  248  A    between atoms: _609  and  _611
REMARK  249  A    between atoms: _611  and  _612
REMARK  250  A    between atoms: _612  and  _613
REMARK  251  A    between atoms: _617  and  _619
REMARK  252  A    between atoms: _619  and  _620
REMARK  253  A    between atoms: _619  and  _627
REMARK  254  A    between atoms: _620  and  _621
REMARK  255  A    between atoms: _621  and  _622
REMARK  256  A    between atoms: _622  and  _623
REMARK  257  A    between atoms: _623  and  _624
REMARK  258  A    between atoms: _629  and  _631
REMARK  259  A    between atoms: _631  and  _632
REMARK  260  A    between atoms: _631  and  _634
REMARK  261  A    between atoms: _634  and  _635
REMARK  262  A    between atoms: _638  and  _640
REMARK  263  A    between atoms: _640  and  _641
REMARK  264  A    between atoms: _643  and  _645
REMARK  265  A    between atoms: _645  and  _646
REMARK  266  A    between atoms: _649  and  _651
REMARK  267  A    between atoms: _651  and  _652
REMARK  268  A    between atoms: _651  and  _654
REMARK  269  A    between atoms: _654  and  _655
REMARK  270  A    between atoms: _660  and  _661
REMARK                            x       y       z     vdW  Elec       q    Type
REMARK                         _______ _______ _______ _____ _____    ______ ____
ROOT
ATOM      1  O   HOH     1      36.322  24.865  24.224  0.00  0.00    +0.000 OA
ENDROOT
TORSDOF 0
REMARK  Name = ../refined-set-2016/2qrm/2qrm_pocket.pdb
REMARK  270 active torsions:
REMARK  status: ('A' for Active; 'I' for Inactive)
REMARK    1  A    between atoms: _1  and  _3
REMARK    2  A    between atoms: _3  and  _4
REMARK    3  A    between atoms: _3  and  _6
REMARK    4  A    between atoms: _6  and  _7
REMARK    5  A    between atoms: _12  and  _13
REMARK    6  A    between atoms: _15  and  _17
REMARK    7  A    between atoms: _17  and  _18
REMARK    8  A    between atoms: _17  and  _20
REMARK    9  A    between atoms: _20  and  _21
REMARK   10  A    between atoms: _24  and  _26
REMARK   11  A    between atoms: _26  and  _27
REMARK   12  A    between atoms: _26  and  _29
REMARK   13  A    between atoms: _29  and  _30
REMARK   14  A    between atoms: _30  and  _31
REMARK   15  A    between atoms: _34  and  _36
REMARK   16  A    between atoms: _36  and  _37
REMARK   17  A    between atoms: _39  and  _41
REMARK   18  A    between atoms: _41  and  _42
REMARK   19  A    between atoms: _41  and  _44
REMARK   20  A    between atoms: _44  and  _45
REMARK   21  A    between atoms: _50  and  _52
REMARK   22  A    between atoms: _52  and  _53
REMARK   23  A    between atoms: _55  and  _57
REMARK   24  A    between atoms: _57  and  _58
REMARK   25  A    between atoms: _60  and  _62
REMARK   26  A    between atoms: _62  and  _63
REMARK   27  A    between atoms: _62  and  _65
REMARK   28  A    between atoms: _65  and  _66
REMARK   29  A    between atoms: _69  and  _71
REMARK   30  A    between atoms: _71  and  _72
REMARK   31  A    between atoms: _74  and  _76
REMARK   32  A    between atoms: _76  and  _77
REMARK   33  A    between atoms: _76  and  _79
REMARK   34  A    between atoms: _79  and  _80
REMARK   35  A    between atoms: _80  and  _81
REMARK   36  A    between atoms: _81  and  _82
REMARK   37  A    between atoms: _91  and  _93
REMARK   38  A    between atoms: _93  and  _94
REMARK   39  A    between atoms: _93  and  _96
REMARK   40  A    between atoms: _96  and  _97
REMARK   41  A    between atoms: _100  and  _102
REMARK   42  A    between atoms: _102  and  _103
REMARK   43  A    between atoms: _106  and  _108
REMARK   44  A    between atoms: _108  and  _109
REMARK   45  A    between atoms: _108  and  _111
REMARK   46  A    between atoms: _111  and  _112
REMARK   47  A    between atoms: _118  and  _120
REMARK   48  A    between atoms: _120  and  _121
REMARK   49  A    between atoms: _120  and  _123
REMARK   50  A    between atoms: _123  and  _124
REMARK   51  A    between atoms: _129  and  _130
REMARK   52  A    between atoms: _132  and  _134
REMARK   53  A    between atoms: _134  and  _135
REMARK   54  A    between atoms: _134  and  _137
REMARK   55  A    between atoms: _137  and  _138
REMARK   56  A    between atoms: _141  and  _143
REMARK   57  A    between atoms: _143  and  _144
REMARK   58  A    between atoms: _143  and  _146
REMARK   59  A    between atoms: _146  and  _147
REMARK   60  A    between atoms: _152  and  _153
REMARK   61  A    between atoms: _156  and  _157
REMARK   62  A    between atoms: _162  and  _164
REMARK   63  A    between atoms: _164  and  _165
REMARK   64  A    between atoms: _164  and  _167
REMARK   65  A    between atoms: _167  and  _168
REMARK   66  A    between atoms: _173  and  _175
REMARK   67  A    between atoms: _175  and  _176
REMARK   68  A    between atoms: _175  and  _178
REMARK   69  A    between atoms: _178  and  _179
REMARK   70  A    between atoms: _182  and  _184
REMARK   71  A    between atoms: _184  and  _185
REMARK   72  A    between atoms: _184  and  _187
REMARK   73  A    between atoms: _187  and  _188
REMARK   74  A    between atoms: _193  and  _195
REMARK   75  A    between atoms: _195  and  _196
REMARK   76  A    between atoms: _195  and  _198
REMARK   77  A    between atoms: _198  and  _199
REMARK   78  A    between atoms: _205  and  _207
REMARK   79  A    between atoms: _207  and  _208
REMARK   80  A    between atoms: _207  and  _210
REMARK   81  A    between atoms: _210  and  _211
REMARK   82  A    between atoms: _217  and  _219
REMARK   83  A    between atoms: _219  and  _220
REMARK   84  A    between atoms: _219  and  _222
REMARK   85  A    between atoms: _222  and  _223
REMARK   86  A    between atoms: _223  and  _224
REMARK   87  A    between atoms: _227  and  _229
REMARK   88  A    between atoms: _229  and  _230
REMARK   89  A    between atoms: _229  and  _232
REMARK   90  A    between atoms: _232  and  _233
REMARK   91  A    between atoms: _233  and  _234
REMARK   92  A    between atoms: _234  and  _235
REMARK   93  A    between atoms: _244  and  _246
REMARK   94  A    between atoms: _246  and  _247
REMARK   95  A    between atoms: _246  and  _249
REMARK   96  A    between atoms: _249  and  _250
REMARK   97  A    between atoms: _250  and  _251
REMARK   98  A    between atoms: _254  and  _256
REMARK   99  A    between atoms: _256  and  _257
REMARK  100  A    between atoms: _256  and  _259
REMARK  101  A    between atoms: _259  and  _260
REMARK  102  A    between atoms: _265  and  _267
REMARK  103  A    between atoms: _267  and  _268
REMARK  104  A    between atoms: _267  and  _270
REMARK  105  A    between atoms: _270  and  _271
REMARK  106  A    between atoms: _274  and  _276
REMARK  107  A    between atoms: _276  and  _277
REMARK  108  A    between atoms: _276  and  _279
REMARK  109  A    between atoms: _279  and  _280
REMARK  110  A    between atoms: _283  and  _285
REMARK  111  A    between atoms: _285  and  _286
REMARK  112  A    between atoms: _285  and  _288
REMARK  113  A    between atoms: _288  and  _289
REMARK  114  A    between atoms: _294  and  _296
REMARK  115  A    between atoms: _296  and  _297
REMARK  116  A    between atoms: _296  and  _299
REMARK  117  A    between atoms: _299  and  _300
REMARK  118  A    between atoms: _303  and  _305
REMARK  119  A    between atoms: _305  and  _306
REMARK  120  A    between atoms: _305  and  _308
REMARK  121  A    between atoms: _308  and  _309
REMARK  122  A    between atoms: _314  and  _316
REMARK  123  A    between atoms: _316  and  _317
REMARK  124  A    between atoms: _316  and  _319
REMARK  125  A    between atoms: _319  and  _320
REMARK  126  A    between atoms: _325  and  _327
REMARK  127  A    between atoms: _327  and  _328
REMARK  128  A    between atoms: _327  and  _330
REMARK  129  A    between atoms: _330  and  _331
REMARK  130  A    between atoms: _334  and  _336
REMARK  131  A    between atoms: _336  and  _337
REMARK  132  A    between atoms: _336  and  _339
REMARK  133  A    between atoms: _342  and  _344
REMARK  134  A    between atoms: _344  and  _345
REMARK  135  A    between atoms: _344  and  _347
REMARK  136  A    between atoms: _347  and  _348
REMARK  137  A    between atoms: _351  and  _353
REMARK  138  A    between atoms: _353  and  _354
REMARK  139  A    between atoms: _353  and  _356
REMARK  140  A    between atoms: _356  and  _357
REMARK  141  A    between atoms: _357  and  _358
REMARK  142  A    between atoms: _361  and  _363
REMARK  143  A    between atoms: _363  and  _364
REMARK  144  A    between atoms: _367  and  _369
REMARK  145  A    between atoms: _369  and  _370
REMARK  146  A    between atoms: _369  and  _372
REMARK  147  A    between atoms: _372  and  _373
REMARK  148  A    between atoms: _376  and  _378
REMARK  149  A    between atoms: _378  and  _379
REMARK  150  A    between atoms: _378  and  _381
REMARK  151  A    between atoms: _381  and  _382
REMARK  152  A    between atoms: _382  and  _383
REMARK  153  A    between atoms: _386  and  _388
REMARK  154  A    between atoms: _388  and  _389
REMARK  155  A    between atoms: _388  and  _391
REMARK  156  A    between atoms: _391  and  _392
REMARK  157  A    between atoms: _397  and  _399
REMARK  158  A    between atoms: _399  and  _400
REMARK  159  A    between atoms: _402  and  _404
REMARK  160  A    between atoms: _404  and  _405
REMARK  161  A    between atoms: _404  and  _407
REMARK  162  A    between atoms: _410  and  _412
REMARK  163  A    between atoms: _412  and  _413
REMARK  164  A    between atoms: _416  and  _418
REMARK  165  A    between atoms: _418  and  _419
REMARK  166  A    between atoms: _418  and  _421
REMARK  167  A    between atoms: _421  and  _422
REMARK  168  A    between atoms: _427  and  _429
REMARK  169  A    between atoms: _429  and  _430
REMARK  170  A    between atoms: _429  and  _432
REMARK  171  A    between atoms: _432  and  _433
REMARK  172  A    between atoms: _433  and  _434
REMARK  173  A    between atoms: _434  and  _435
REMARK  174  A    between atoms: _435  and  _436
REMARK  175  A    between atoms: _440  and  _442
REMARK  176  A    between atoms: _442  and  _443
REMARK  177  A    between atoms: _442  and  _445
REMARK  178  A    between atoms: _445  and  _446
REMARK  179  A    between atoms: _449  and  _451
REMARK  180  A    between atoms: _451  and  _452
REMARK  181  A    between atoms: _451  and  _454
REMARK  182  A    between atoms: _454  and  _455
REMARK  183  A    between atoms: _460  and  _462
REMARK  184  A    between atoms: _462  and  _463
REMARK  185  A    between atoms: _465  and  _467
REMARK  186  A    between atoms: _467  and  _468
REMARK  187  A    between atoms: _467  and  _470
REMARK  188  A    between atoms: _470  and  _471
REMARK  189  A    between atoms: _471  and  _472
REMARK  190  A    between atoms: _472  and  _473
REMARK  191  A    between atoms: _473  and  _474
REMARK  192  A    between atoms: _478  and  _480
REMARK  193  A    between atoms: _480  and  _481
REMARK  194  A    between atoms: _480  and  _483
REMARK  195  A    between atoms: _483  and  _484
REMARK  196  A    between atoms: _484  and  _485
REMARK  197  A    between atoms: _485  and  _486
REMARK  198  A    between atoms: _495  and  _497
REMARK  199  A    between atoms: _497  and  _498
REMARK  200  A    between atoms: _497  and  _500
REMARK  201  A    between atoms: _500  and  _501
REMARK  202  A    between atoms: _506  and  _507
REMARK  203  A    between atoms: _509  and  _511
REMARK  204  A    between atoms: _511  and  _512
REMARK  205  A    between atoms: _511  and  _514
REMARK  206  A    between atoms: _514  and  _515
REMARK  207  A    between atoms: _515  and  _516
REMARK  208  A    between atoms: _516  and  _517
REMARK  209  A    between atoms: _517  and  _518
REMARK  210  A    between atoms: _522  and  _524
REMARK  211  A    between atoms: _524  and  _525
REMARK  212  A    between atoms: _524  and  _527
REMARK  213  A    between atoms: _527  and  _528
REMARK  214  A    between atoms: _530  and  _532
REMARK  215  A    between atoms: _532  and  _533
REMARK  216  A    between atoms: _532  and  _535
REMARK  217  A    between atoms: _535  and  _536
REMARK  218  A    between atoms: _539  and  _541
REMARK  219  A    between atoms: _541  and  _542
REMARK  220  A    between atoms: _541  and  _544
REMARK  221  A    between atoms: _544  and  _545
REMARK  222  A    between atoms: _545  and  _546
REMARK  223  A    between atoms: _549  and  _551
REMARK  224  A    between atoms: _551  and  _552
REMARK  225  A    between atoms: _555  and  _557
REMARK  226  A    between atoms: _557  and  _558
REMARK  227  A    between atoms: _557  and  _560
REMARK  228  A    between atoms: _560  and  _561
REMARK  229  A    between atoms: _563  and  _565
REMARK  230  A    between atoms: _565  and  _566
REMARK  231  A    between atoms: _568  and  _570
REMARK  232  A    between atoms: _570  and  _571
REMARK  233  A    between atoms: _570  and  _573
REMARK  234  A    between atoms: _573  and  _574
REMARK  235  A    between atoms: _577  and  _579
REMARK  236  A    between atoms: _579  and  _580
REMARK  237  A    between atoms: _582  and  _584
REMARK  238  A    between atoms: _584  and  _585
REMARK  239  A    between atoms: _584  and  _587
REMARK  240  A    between atoms: _587  and  _588
REMARK  241  A    between atoms: _593  and  _595
REMARK  242  A    between atoms: _595  and  _596
REMARK  243  A    between atoms: _595  and  _598
REMARK  244  A    between atoms: _598  and  _599
REMARK  245  A    between atoms: _599  and  _600
REMARK  246  A    between atoms: _607  and  _608
REMARK  247  A    between atoms: _608  and  _624
REMARK  248  A    between atoms: _609  and  _611
REMARK  249  A    between atoms: _611  and  _612
REMARK  250  A    between atoms: _612  and  _613
REMARK  251  A    between atoms: _617  and  _619
REMARK  252  A    between atoms: _619  and  _620
REMARK  253  A    between atoms: _619  and  _627
REMARK  254  A    between atoms: _620  and  _621
REMARK  255  A    between atoms: _621  and  _622
REMARK  256  A    between atoms: _622  and  _623
REMARK  257  A    between atoms: _623  and  _624
REMARK  258  A    between atoms: _629  and  _631
REMARK  259  A    between atoms: _631  and  _632
REMARK  260  A    between atoms: _631  and  _634
REMARK  261  A    between atoms: _634  and  _635
REMARK  262  A    between atoms: _638  and  _640
REMARK  263  A    between atoms: _640  and  _641
REMARK  264  A    between atoms: _643  and  _645
REMARK  265  A    between atoms: _645  and  _646
REMARK  266  A    between atoms: _649  and  _651
REMARK  267  A    between atoms: _651  and  _652
REMARK  268  A    between atoms: _651  and  _654
REMARK  269  A    between atoms: _654  and  _655
REMARK  270  A    between atoms: _660  and  _661
REMARK                            x       y       z     vdW  Elec       q    Type
REMARK                         _______ _______ _______ _____ _____    ______ ____
ROOT
ATOM      1  O   HOH     1      39.074  23.019  19.757  0.00  0.00    +0.000 OA
ENDROOT
TORSDOF 0
REMARK  Name = ../refined-set-2016/2qrm/2qrm_pocket.pdb
REMARK  270 active torsions:
REMARK  status: ('A' for Active; 'I' for Inactive)
REMARK    1  A    between atoms: _1  and  _3
REMARK    2  A    between atoms: _3  and  _4
REMARK    3  A    between atoms: _3  and  _6
REMARK    4  A    between atoms: _6  and  _7
REMARK    5  A    between atoms: _12  and  _13
REMARK    6  A    between atoms: _15  and  _17
REMARK    7  A    between atoms: _17  and  _18
REMARK    8  A    between atoms: _17  and  _20
REMARK    9  A    between atoms: _20  and  _21
REMARK   10  A    between atoms: _24  and  _26
REMARK   11  A    between atoms: _26  and  _27
REMARK   12  A    between atoms: _26  and  _29
REMARK   13  A    between atoms: _29  and  _30
REMARK   14  A    between atoms: _30  and  _31
REMARK   15  A    between atoms: _34  and  _36
REMARK   16  A    between atoms: _36  and  _37
REMARK   17  A    between atoms: _39  and  _41
REMARK   18  A    between atoms: _41  and  _42
REMARK   19  A    between atoms: _41  and  _44
REMARK   20  A    between atoms: _44  and  _45
REMARK   21  A    between atoms: _50  and  _52
REMARK   22  A    between atoms: _52  and  _53
REMARK   23  A    between atoms: _55  and  _57
REMARK   24  A    between atoms: _57  and  _58
REMARK   25  A    between atoms: _60  and  _62
REMARK   26  A    between atoms: _62  and  _63
REMARK   27  A    between atoms: _62  and  _65
REMARK   28  A    between atoms: _65  and  _66
REMARK   29  A    between atoms: _69  and  _71
REMARK   30  A    between atoms: _71  and  _72
REMARK   31  A    between atoms: _74  and  _76
REMARK   32  A    between atoms: _76  and  _77
REMARK   33  A    between atoms: _76  and  _79
REMARK   34  A    between atoms: _79  and  _80
REMARK   35  A    between atoms: _80  and  _81
REMARK   36  A    between atoms: _81  and  _82
REMARK   37  A    between atoms: _91  and  _93
REMARK   38  A    between atoms: _93  and  _94
REMARK   39  A    between atoms: _93  and  _96
REMARK   40  A    between atoms: _96  and  _97
REMARK   41  A    between atoms: _100  and  _102
REMARK   42  A    between atoms: _102  and  _103
REMARK   43  A    between atoms: _106  and  _108
REMARK   44  A    between atoms: _108  and  _109
REMARK   45  A    between atoms: _108  and  _111
REMARK   46  A    between atoms: _111  and  _112
REMARK   47  A    between atoms: _118  and  _120
REMARK   48  A    between atoms: _120  and  _121
REMARK   49  A    between atoms: _120  and  _123
REMARK   50  A    between atoms: _123  and  _124
REMARK   51  A    between atoms: _129  and  _130
REMARK   52  A    between atoms: _132  and  _134
REMARK   53  A    between atoms: _134  and  _135
REMARK   54  A    between atoms: _134  and  _137
REMARK   55  A    between atoms: _137  and  _138
REMARK   56  A    between atoms: _141  and  _143
REMARK   57  A    between atoms: _143  and  _144
REMARK   58  A    between atoms: _143  and  _146
REMARK   59  A    between atoms: _146  and  _147
REMARK   60  A    between atoms: _152  and  _153
REMARK   61  A    between atoms: _156  and  _157
REMARK   62  A    between atoms: _162  and  _164
REMARK   63  A    between atoms: _164  and  _165
REMARK   64  A    between atoms: _164  and  _167
REMARK   65  A    between atoms: _167  and  _168
REMARK   66  A    between atoms: _173  and  _175
REMARK   67  A    between atoms: _175  and  _176
REMARK   68  A    between atoms: _175  and  _178
REMARK   69  A    between atoms: _178  and  _179
REMARK   70  A    between atoms: _182  and  _184
REMARK   71  A    between atoms: _184  and  _185
REMARK   72  A    between atoms: _184  and  _187
REMARK   73  A    between atoms: _187  and  _188
REMARK   74  A    between atoms: _193  and  _195
REMARK   75  A    between atoms: _195  and  _196
REMARK   76  A    between atoms: _195  and  _198
REMARK   77  A    between atoms: _198  and  _199
REMARK   78  A    between atoms: _205  and  _207
REMARK   79  A    between atoms: _207  and  _208
REMARK   80  A    between atoms: _207  and  _210
REMARK   81  A    between atoms: _210  and  _211
REMARK   82  A    between atoms: _217  and  _219
REMARK   83  A    between atoms: _219  and  _220
REMARK   84  A    between atoms: _219  and  _222
REMARK   85  A    between atoms: _222  and  _223
REMARK   86  A    between atoms: _223  and  _224
REMARK   87  A    between atoms: _227  and  _229
REMARK   88  A    between atoms: _229  and  _230
REMARK   89  A    between atoms: _229  and  _232
REMARK   90  A    between atoms: _232  and  _233
REMARK   91  A    between atoms: _233  and  _234
REMARK   92  A    between atoms: _234  and  _235
REMARK   93  A    between atoms: _244  and  _246
REMARK   94  A    between atoms: _246  and  _247
REMARK   95  A    between atoms: _246  and  _249
REMARK   96  A    between atoms: _249  and  _250
REMARK   97  A    between atoms: _250  and  _251
REMARK   98  A    between atoms: _254  and  _256
REMARK   99  A    between atoms: _256  and  _257
REMARK  100  A    between atoms: _256  and  _259
REMARK  101  A    between atoms: _259  and  _260
REMARK  102  A    between atoms: _265  and  _267
REMARK  103  A    between atoms: _267  and  _268
REMARK  104  A    between atoms: _267  and  _270
REMARK  105  A    between atoms: _270  and  _271
REMARK  106  A    between atoms: _274  and  _276
REMARK  107  A    between atoms: _276  and  _277
REMARK  108  A    between atoms: _276  and  _279
REMARK  109  A    between atoms: _279  and  _280
REMARK  110  A    between atoms: _283  and  _285
REMARK  111  A    between atoms: _285  and  _286
REMARK  112  A    between atoms: _285  and  _288
REMARK  113  A    between atoms: _288  and  _289
REMARK  114  A    between atoms: _294  and  _296
REMARK  115  A    between atoms: _296  and  _297
REMARK  116  A    between atoms: _296  and  _299
REMARK  117  A    between atoms: _299  and  _300
REMARK  118  A    between atoms: _303  and  _305
REMARK  119  A    between atoms: _305  and  _306
REMARK  120  A    between atoms: _305  and  _308
REMARK  121  A    between atoms: _308  and  _309
REMARK  122  A    between atoms: _314  and  _316
REMARK  123  A    between atoms: _316  and  _317
REMARK  124  A    between atoms: _316  and  _319
REMARK  125  A    between atoms: _319  and  _320
REMARK  126  A    between atoms: _325  and  _327
REMARK  127  A    between atoms: _327  and  _328
REMARK  128  A    between atoms: _327  and  _330
REMARK  129  A    between atoms: _330  and  _331
REMARK  130  A    between atoms: _334  and  _336
REMARK  131  A    between atoms: _336  and  _337
REMARK  132  A    between atoms: _336  and  _339
REMARK  133  A    between atoms: _342  and  _344
REMARK  134  A    between atoms: _344  and  _345
REMARK  135  A    between atoms: _344  and  _347
REMARK  136  A    between atoms: _347  and  _348
REMARK  137  A    between atoms: _351  and  _353
REMARK  138  A    between atoms: _353  and  _354
REMARK  139  A    between atoms: _353  and  _356
REMARK  140  A    between atoms: _356  and  _357
REMARK  141  A    between atoms: _357  and  _358
REMARK  142  A    between atoms: _361  and  _363
REMARK  143  A    between atoms: _363  and  _364
REMARK  144  A    between atoms: _367  and  _369
REMARK  145  A    between atoms: _369  and  _370
REMARK  146  A    between atoms: _369  and  _372
REMARK  147  A    between atoms: _372  and  _373
REMARK  148  A    between atoms: _376  and  _378
REMARK  149  A    between atoms: _378  and  _379
REMARK  150  A    between atoms: _378  and  _381
REMARK  151  A    between atoms: _381  and  _382
REMARK  152  A    between atoms: _382  and  _383
REMARK  153  A    between atoms: _386  and  _388
REMARK  154  A    between atoms: _388  and  _389
REMARK  155  A    between atoms: _388  and  _391
REMARK  156  A    between atoms: _391  and  _392
REMARK  157  A    between atoms: _397  and  _399
REMARK  158  A    between atoms: _399  and  _400
REMARK  159  A    between atoms: _402  and  _404
REMARK  160  A    between atoms: _404  and  _405
REMARK  161  A    between atoms: _404  and  _407
REMARK  162  A    between atoms: _410  and  _412
REMARK  163  A    between atoms: _412  and  _413
REMARK  164  A    between atoms: _416  and  _418
REMARK  165  A    between atoms: _418  and  _419
REMARK  166  A    between atoms: _418  and  _421
REMARK  167  A    between atoms: _421  and  _422
REMARK  168  A    between atoms: _427  and  _429
REMARK  169  A    between atoms: _429  and  _430
REMARK  170  A    between atoms: _429  and  _432
REMARK  171  A    between atoms: _432  and  _433
REMARK  172  A    between atoms: _433  and  _434
REMARK  173  A    between atoms: _434  and  _435
REMARK  174  A    between atoms: _435  and  _436
REMARK  175  A    between atoms: _440  and  _442
REMARK  176  A    between atoms: _442  and  _443
REMARK  177  A    between atoms: _442  and  _445
REMARK  178  A    between atoms: _445  and  _446
REMARK  179  A    between atoms: _449  and  _451
REMARK  180  A    between atoms: _451  and  _452
REMARK  181  A    between atoms: _451  and  _454
REMARK  182  A    between atoms: _454  and  _455
REMARK  183  A    between atoms: _460  and  _462
REMARK  184  A    between atoms: _462  and  _463
REMARK  185  A    between atoms: _465  and  _467
REMARK  186  A    between atoms: _467  and  _468
REMARK  187  A    between atoms: _467  and  _470
REMARK  188  A    between atoms: _470  and  _471
REMARK  189  A    between atoms: _471  and  _472
REMARK  190  A    between atoms: _472  and  _473
REMARK  191  A    between atoms: _473  and  _474
REMARK  192  A    between atoms: _478  and  _480
REMARK  193  A    between atoms: _480  and  _481
REMARK  194  A    between atoms: _480  and  _483
REMARK  195  A    between atoms: _483  and  _484
REMARK  196  A    between atoms: _484  and  _485
REMARK  197  A    between atoms: _485  and  _486
REMARK  198  A    between atoms: _495  and  _497
REMARK  199  A    between atoms: _497  and  _498
REMARK  200  A    between atoms: _497  and  _500
REMARK  201  A    between atoms: _500  and  _501
REMARK  202  A    between atoms: _506  and  _507
REMARK  203  A    between atoms: _509  and  _511
REMARK  204  A    between atoms: _511  and  _512
REMARK  205  A    between atoms: _511  and  _514
REMARK  206  A    between atoms: _514  and  _515
REMARK  207  A    between atoms: _515  and  _516
REMARK  208  A    between atoms: _516  and  _517
REMARK  209  A    between atoms: _517  and  _518
REMARK  210  A    between atoms: _522  and  _524
REMARK  211  A    between atoms: _524  and  _525
REMARK  212  A    between atoms: _524  and  _527
REMARK  213  A    between atoms: _527  and  _528
REMARK  214  A    between atoms: _530  and  _532
REMARK  215  A    between atoms: _532  and  _533
REMARK  216  A    between atoms: _532  and  _535
REMARK  217  A    between atoms: _535  and  _536
REMARK  218  A    between atoms: _539  and  _541
REMARK  219  A    between atoms: _541  and  _542
REMARK  220  A    between atoms: _541  and  _544
REMARK  221  A    between atoms: _544  and  _545
REMARK  222  A    between atoms: _545  and  _546
REMARK  223  A    between atoms: _549  and  _551
REMARK  224  A    between atoms: _551  and  _552
REMARK  225  A    between atoms: _555  and  _557
REMARK  226  A    between atoms: _557  and  _558
REMARK  227  A    between atoms: _557  and  _560
REMARK  228  A    between atoms: _560  and  _561
REMARK  229  A    between atoms: _563  and  _565
REMARK  230  A    between atoms: _565  and  _566
REMARK  231  A    between atoms: _568  and  _570
REMARK  232  A    between atoms: _570  and  _571
REMARK  233  A    between atoms: _570  and  _573
REMARK  234  A    between atoms: _573  and  _574
REMARK  235  A    between atoms: _577  and  _579
REMARK  236  A    between atoms: _579  and  _580
REMARK  237  A    between atoms: _582  and  _584
REMARK  238  A    between atoms: _584  and  _585
REMARK  239  A    between atoms: _584  and  _587
REMARK  240  A    between atoms: _587  and  _588
REMARK  241  A    between atoms: _593  and  _595
REMARK  242  A    between atoms: _595  and  _596
REMARK  243  A    between atoms: _595  and  _598
REMARK  244  A    between atoms: _598  and  _599
REMARK  245  A    between atoms: _599  and  _600
REMARK  246  A    between atoms: _607  and  _608
REMARK  247  A    between atoms: _608  and  _624
REMARK  248  A    between atoms: _609  and  _611
REMARK  249  A    between atoms: _611  and  _612
REMARK  250  A    between atoms: _612  and  _613
REMARK  251  A    between atoms: _617  and  _619
REMARK  252  A    between atoms: _619  and  _620
REMARK  253  A    between atoms: _619  and  _627
REMARK  254  A    between atoms: _620  and  _621
REMARK  255  A    between atoms: _621  and  _622
REMARK  256  A    between atoms: _622  and  _623
REMARK  257  A    between atoms: _623  and  _624
REMARK  258  A    between atoms: _629  and  _631
REMARK  259  A    between atoms: _631  and  _632
REMARK  260  A    between atoms: _631  and  _634
REMARK  261  A    between atoms: _634  and  _635
REMARK  262  A    between atoms: _638  and  _640
REMARK  263  A    between atoms: _640  and  _641
REMARK  264  A    between atoms: _643  and  _645
REMARK  265  A    between atoms: _645  and  _646
REMARK  266  A    between atoms: _649  and  _651
REMARK  267  A    between atoms: _651  and  _652
REMARK  268  A    between atoms: _651  and  _654
REMARK  269  A    between atoms: _654  and  _655
REMARK  270  A    between atoms: _660  and  _661
REMARK                            x       y       z     vdW  Elec       q    Type
REMARK                         _______ _______ _______ _____ _____    ______ ____
ROOT
ATOM      1  O   HOH     1      42.954  20.628  30.442  0.00  0.00    +0.000 OA
ENDROOT
TORSDOF 0
REMARK  Name = ../refined-set-2016/2qrm/2qrm_pocket.pdb
REMARK  270 active torsions:
REMARK  status: ('A' for Active; 'I' for Inactive)
REMARK    1  A    between atoms: _1  and  _3
REMARK    2  A    between atoms: _3  and  _4
REMARK    3  A    between atoms: _3  and  _6
REMARK    4  A    between atoms: _6  and  _7
REMARK    5  A    between atoms: _12  and  _13
REMARK    6  A    between atoms: _15  and  _17
REMARK    7  A    between atoms: _17  and  _18
REMARK    8  A    between atoms: _17  and  _20
REMARK    9  A    between atoms: _20  and  _21
REMARK   10  A    between atoms: _24  and  _26
REMARK   11  A    between atoms: _26  and  _27
REMARK   12  A    between atoms: _26  and  _29
REMARK   13  A    between atoms: _29  and  _30
REMARK   14  A    between atoms: _30  and  _31
REMARK   15  A    between atoms: _34  and  _36
REMARK   16  A    between atoms: _36  and  _37
REMARK   17  A    between atoms: _39  and  _41
REMARK   18  A    between atoms: _41  and  _42
REMARK   19  A    between atoms: _41  and  _44
REMARK   20  A    between atoms: _44  and  _45
REMARK   21  A    between atoms: _50  and  _52
REMARK   22  A    between atoms: _52  and  _53
REMARK   23  A    between atoms: _55  and  _57
REMARK   24  A    between atoms: _57  and  _58
REMARK   25  A    between atoms: _60  and  _62
REMARK   26  A    between atoms: _62  and  _63
REMARK   27  A    between atoms: _62  and  _65
REMARK   28  A    between atoms: _65  and  _66
REMARK   29  A    between atoms: _69  and  _71
REMARK   30  A    between atoms: _71  and  _72
REMARK   31  A    between atoms: _74  and  _76
REMARK   32  A    between atoms: _76  and  _77
REMARK   33  A    between atoms: _76  and  _79
REMARK   34  A    between atoms: _79  and  _80
REMARK   35  A    between atoms: _80  and  _81
REMARK   36  A    between atoms: _81  and  _82
REMARK   37  A    between atoms: _91  and  _93
REMARK   38  A    between atoms: _93  and  _94
REMARK   39  A    between atoms: _93  and  _96
REMARK   40  A    between atoms: _96  and  _97
REMARK   41  A    between atoms: _100  and  _102
REMARK   42  A    between atoms: _102  and  _103
REMARK   43  A    between atoms: _106  and  _108
REMARK   44  A    between atoms: _108  and  _109
REMARK   45  A    between atoms: _108  and  _111
REMARK   46  A    between atoms: _111  and  _112
REMARK   47  A    between atoms: _118  and  _120
REMARK   48  A    between atoms: _120  and  _121
REMARK   49  A    between atoms: _120  and  _123
REMARK   50  A    between atoms: _123  and  _124
REMARK   51  A    between atoms: _129  and  _130
REMARK   52  A    between atoms: _132  and  _134
REMARK   53  A    between atoms: _134  and  _135
REMARK   54  A    between atoms: _134  and  _137
REMARK   55  A    between atoms: _137  and  _138
REMARK   56  A    between atoms: _141  and  _143
REMARK   57  A    between atoms: _143  and  _144
REMARK   58  A    between atoms: _143  and  _146
REMARK   59  A    between atoms: _146  and  _147
REMARK   60  A    between atoms: _152  and  _153
REMARK   61  A    between atoms: _156  and  _157
REMARK   62  A    between atoms: _162  and  _164
REMARK   63  A    between atoms: _164  and  _165
REMARK   64  A    between atoms: _164  and  _167
REMARK   65  A    between atoms: _167  and  _168
REMARK   66  A    between atoms: _173  and  _175
REMARK   67  A    between atoms: _175  and  _176
REMARK   68  A    between atoms: _175  and  _178
REMARK   69  A    between atoms: _178  and  _179
REMARK   70  A    between atoms: _182  and  _184
REMARK   71  A    between atoms: _184  and  _185
REMARK   72  A    between atoms: _184  and  _187
REMARK   73  A    between atoms: _187  and  _188
REMARK   74  A    between atoms: _193  and  _195
REMARK   75  A    between atoms: _195  and  _196
REMARK   76  A    between atoms: _195  and  _198
REMARK   77  A    between atoms: _198  and  _199
REMARK   78  A    between atoms: _205  and  _207
REMARK   79  A    between atoms: _207  and  _208
REMARK   80  A    between atoms: _207  and  _210
REMARK   81  A    between atoms: _210  and  _211
REMARK   82  A    between atoms: _217  and  _219
REMARK   83  A    between atoms: _219  and  _220
REMARK   84  A    between atoms: _219  and  _222
REMARK   85  A    between atoms: _222  and  _223
REMARK   86  A    between atoms: _223  and  _224
REMARK   87  A    between atoms: _227  and  _229
REMARK   88  A    between atoms: _229  and  _230
REMARK   89  A    between atoms: _229  and  _232
REMARK   90  A    between atoms: _232  and  _233
REMARK   91  A    between atoms: _233  and  _234
REMARK   92  A    between atoms: _234  and  _235
REMARK   93  A    between atoms: _244  and  _246
REMARK   94  A    between atoms: _246  and  _247
REMARK   95  A    between atoms: _246  and  _249
REMARK   96  A    between atoms: _249  and  _250
REMARK   97  A    between atoms: _250  and  _251
REMARK   98  A    between atoms: _254  and  _256
REMARK   99  A    between atoms: _256  and  _257
REMARK  100  A    between atoms: _256  and  _259
REMARK  101  A    between atoms: _259  and  _260
REMARK  102  A    between atoms: _265  and  _267
REMARK  103  A    between atoms: _267  and  _268
REMARK  104  A    between atoms: _267  and  _270
REMARK  105  A    between atoms: _270  and  _271
REMARK  106  A    between atoms: _274  and  _276
REMARK  107  A    between atoms: _276  and  _277
REMARK  108  A    between atoms: _276  and  _279
REMARK  109  A    between atoms: _279  and  _280
REMARK  110  A    between atoms: _283  and  _285
REMARK  111  A    between atoms: _285  and  _286
REMARK  112  A    between atoms: _285  and  _288
REMARK  113  A    between atoms: _288  and  _289
REMARK  114  A    between atoms: _294  and  _296
REMARK  115  A    between atoms: _296  and  _297
REMARK  116  A    between atoms: _296  and  _299
REMARK  117  A    between atoms: _299  and  _300
REMARK  118  A    between atoms: _303  and  _305
REMARK  119  A    between atoms: _305  and  _306
REMARK  120  A    between atoms: _305  and  _308
REMARK  121  A    between atoms: _308  and  _309
REMARK  122  A    between atoms: _314  and  _316
REMARK  123  A    between atoms: _316  and  _317
REMARK  124  A    between atoms: _316  and  _319
REMARK  125  A    between atoms: _319  and  _320
REMARK  126  A    between atoms: _325  and  _327
REMARK  127  A    between atoms: _327  and  _328
REMARK  128  A    between atoms: _327  and  _330
REMARK  129  A    between atoms: _330  and  _331
REMARK  130  A    between atoms: _334  and  _336
REMARK  131  A    between atoms: _336  and  _337
REMARK  132  A    between atoms: _336  and  _339
REMARK  133  A    between atoms: _342  and  _344
REMARK  134  A    between atoms: _344  and  _345
REMARK  135  A    between atoms: _344  and  _347
REMARK  136  A    between atoms: _347  and  _348
REMARK  137  A    between atoms: _351  and  _353
REMARK  138  A    between atoms: _353  and  _354
REMARK  139  A    between atoms: _353  and  _356
REMARK  140  A    between atoms: _356  and  _357
REMARK  141  A    between atoms: _357  and  _358
REMARK  142  A    between atoms: _361  and  _363
REMARK  143  A    between atoms: _363  and  _364
REMARK  144  A    between atoms: _367  and  _369
REMARK  145  A    between atoms: _369  and  _370
REMARK  146  A    between atoms: _369  and  _372
REMARK  147  A    between atoms: _372  and  _373
REMARK  148  A    between atoms: _376  and  _378
REMARK  149  A    between atoms: _378  and  _379
REMARK  150  A    between atoms: _378  and  _381
REMARK  151  A    between atoms: _381  and  _382
REMARK  152  A    between atoms: _382  and  _383
REMARK  153  A    between atoms: _386  and  _388
REMARK  154  A    between atoms: _388  and  _389
REMARK  155  A    between atoms: _388  and  _391
REMARK  156  A    between atoms: _391  and  _392
REMARK  157  A    between atoms: _397  and  _399
REMARK  158  A    between atoms: _399  and  _400
REMARK  159  A    between atoms: _402  and  _404
REMARK  160  A    between atoms: _404  and  _405
REMARK  161  A    between atoms: _404  and  _407
REMARK  162  A    between atoms: _410  and  _412
REMARK  163  A    between atoms: _412  and  _413
REMARK  164  A    between atoms: _416  and  _418
REMARK  165  A    between atoms: _418  and  _419
REMARK  166  A    between atoms: _418  and  _421
REMARK  167  A    between atoms: _421  and  _422
REMARK  168  A    between atoms: _427  and  _429
REMARK  169  A    between atoms: _429  and  _430
REMARK  170  A    between atoms: _429  and  _432
REMARK  171  A    between atoms: _432  and  _433
REMARK  172  A    between atoms: _433  and  _434
REMARK  173  A    between atoms: _434  and  _435
REMARK  174  A    between atoms: _435  and  _436
REMARK  175  A    between atoms: _440  and  _442
REMARK  176  A    between atoms: _442  and  _443
REMARK  177  A    between atoms: _442  and  _445
REMARK  178  A    between atoms: _445  and  _446
REMARK  179  A    between atoms: _449  and  _451
REMARK  180  A    between atoms: _451  and  _452
REMARK  181  A    between atoms: _451  and  _454
REMARK  182  A    between atoms: _454  and  _455
REMARK  183  A    between atoms: _460  and  _462
REMARK  184  A    between atoms: _462  and  _463
REMARK  185  A    between atoms: _465  and  _467
REMARK  186  A    between atoms: _467  and  _468
REMARK  187  A    between atoms: _467  and  _470
REMARK  188  A    between atoms: _470  and  _471
REMARK  189  A    between atoms: _471  and  _472
REMARK  190  A    between atoms: _472  and  _473
REMARK  191  A    between atoms: _473  and  _474
REMARK  192  A    between atoms: _478  and  _480
REMARK  193  A    between atoms: _480  and  _481
REMARK  194  A    between atoms: _480  and  _483
REMARK  195  A    between atoms: _483  and  _484
REMARK  196  A    between atoms: _484  and  _485
REMARK  197  A    between atoms: _485  and  _486
REMARK  198  A    between atoms: _495  and  _497
REMARK  199  A    between atoms: _497  and  _498
REMARK  200  A    between atoms: _497  and  _500
REMARK  201  A    between atoms: _500  and  _501
REMARK  202  A    between atoms: _506  and  _507
REMARK  203  A    between atoms: _509  and  _511
REMARK  204  A    between atoms: _511  and  _512
REMARK  205  A    between atoms: _511  and  _514
REMARK  206  A    between atoms: _514  and  _515
REMARK  207  A    between atoms: _515  and  _516
REMARK  208  A    between atoms: _516  and  _517
REMARK  209  A    between atoms: _517  and  _518
REMARK  210  A    between atoms: _522  and  _524
REMARK  211  A    between atoms: _524  and  _525
REMARK  212  A    between atoms: _524  and  _527
REMARK  213  A    between atoms: _527  and  _528
REMARK  214  A    between atoms: _530  and  _532
REMARK  215  A    between atoms: _532  and  _533
REMARK  216  A    between atoms: _532  and  _535
REMARK  217  A    between atoms: _535  and  _536
REMARK  218  A    between atoms: _539  and  _541
REMARK  219  A    between atoms: _541  and  _542
REMARK  220  A    between atoms: _541  and  _544
REMARK  221  A    between atoms: _544  and  _545
REMARK  222  A    between atoms: _545  and  _546
REMARK  223  A    between atoms: _549  and  _551
REMARK  224  A    between atoms: _551  and  _552
REMARK  225  A    between atoms: _555  and  _557
REMARK  226  A    between atoms: _557  and  _558
REMARK  227  A    between atoms: _557  and  _560
REMARK  228  A    between atoms: _560  and  _561
REMARK  229  A    between atoms: _563  and  _565
REMARK  230  A    between atoms: _565  and  _566
REMARK  231  A    between atoms: _568  and  _570
REMARK  232  A    between atoms: _570  and  _571
REMARK  233  A    between atoms: _570  and  _573
REMARK  234  A    between atoms: _573  and  _574
REMARK  235  A    between atoms: _577  and  _579
REMARK  236  A    between atoms: _579  and  _580
REMARK  237  A    between atoms: _582  and  _584
REMARK  238  A    between atoms: _584  and  _585
REMARK  239  A    between atoms: _584  and  _587
REMARK  240  A    between atoms: _587  and  _588
REMARK  241  A    between atoms: _593  and  _595
REMARK  242  A    between atoms: _595  and  _596
REMARK  243  A    between atoms: _595  and  _598
REMARK  244  A    between atoms: _598  and  _599
REMARK  245  A    between atoms: _599  and  _600
REMARK  246  A    between atoms: _607  and  _608
REMARK  247  A    between atoms: _608  and  _624
REMARK  248  A    between atoms: _609  and  _611
REMARK  249  A    between atoms: _611  and  _612
REMARK  250  A    between atoms: _612  and  _613
REMARK  251  A    between atoms: _617  and  _619
REMARK  252  A    between atoms: _619  and  _620
REMARK  253  A    between atoms: _619  and  _627
REMARK  254  A    between atoms: _620  and  _621
REMARK  255  A    between atoms: _621  and  _622
REMARK  256  A    between atoms: _622  and  _623
REMARK  257  A    between atoms: _623  and  _624
REMARK  258  A    between atoms: _629  and  _631
REMARK  259  A    between atoms: _631  and  _632
REMARK  260  A    between atoms: _631  and  _634
REMARK  261  A    between atoms: _634  and  _635
REMARK  262  A    between atoms: _638  and  _640
REMARK  263  A    between atoms: _640  and  _641
REMARK  264  A    between atoms: _643  and  _645
REMARK  265  A    between atoms: _645  and  _646
REMARK  266  A    between atoms: _649  and  _651
REMARK  267  A    between atoms: _651  and  _652
REMARK  268  A    between atoms: _651  and  _654
REMARK  269  A    between atoms: _654  and  _655
REMARK  270  A    between atoms: _660  and  _661
REMARK                            x       y       z     vdW  Elec       q    Type
REMARK                         _______ _______ _______ _____ _____    ______ ____
ROOT
ATOM      1  O   HOH     1      38.854  23.884  22.385  0.00  0.00    +0.000 OA
ENDROOT
TORSDOF 0
REMARK  Name = ../refined-set-2016/2qrm/2qrm_pocket.pdb
REMARK  270 active torsions:
REMARK  status: ('A' for Active; 'I' for Inactive)
REMARK    1  A    between atoms: _1  and  _3
REMARK    2  A    between atoms: _3  and  _4
REMARK    3  A    between atoms: _3  and  _6
REMARK    4  A    between atoms: _6  and  _7
REMARK    5  A    between atoms: _12  and  _13
REMARK    6  A    between atoms: _15  and  _17
REMARK    7  A    between atoms: _17  and  _18
REMARK    8  A    between atoms: _17  and  _20
REMARK    9  A    between atoms: _20  and  _21
REMARK   10  A    between atoms: _24  and  _26
REMARK   11  A    between atoms: _26  and  _27
REMARK   12  A    between atoms: _26  and  _29
REMARK   13  A    between atoms: _29  and  _30
REMARK   14  A    between atoms: _30  and  _31
REMARK   15  A    between atoms: _34  and  _36
REMARK   16  A    between atoms: _36  and  _37
REMARK   17  A    between atoms: _39  and  _41
REMARK   18  A    between atoms: _41  and  _42
REMARK   19  A    between atoms: _41  and  _44
REMARK   20  A    between atoms: _44  and  _45
REMARK   21  A    between atoms: _50  and  _52
REMARK   22  A    between atoms: _52  and  _53
REMARK   23  A    between atoms: _55  and  _57
REMARK   24  A    between atoms: _57  and  _58
REMARK   25  A    between atoms: _60  and  _62
REMARK   26  A    between atoms: _62  and  _63
REMARK   27  A    between atoms: _62  and  _65
REMARK   28  A    between atoms: _65  and  _66
REMARK   29  A    between atoms: _69  and  _71
REMARK   30  A    between atoms: _71  and  _72
REMARK   31  A    between atoms: _74  and  _76
REMARK   32  A    between atoms: _76  and  _77
REMARK   33  A    between atoms: _76  and  _79
REMARK   34  A    between atoms: _79  and  _80
REMARK   35  A    between atoms: _80  and  _81
REMARK   36  A    between atoms: _81  and  _82
REMARK   37  A    between atoms: _91  and  _93
REMARK   38  A    between atoms: _93  and  _94
REMARK   39  A    between atoms: _93  and  _96
REMARK   40  A    between atoms: _96  and  _97
REMARK   41  A    between atoms: _100  and  _102
REMARK   42  A    between atoms: _102  and  _103
REMARK   43  A    between atoms: _106  and  _108
REMARK   44  A    between atoms: _108  and  _109
REMARK   45  A    between atoms: _108  and  _111
REMARK   46  A    between atoms: _111  and  _112
REMARK   47  A    between atoms: _118  and  _120
REMARK   48  A    between atoms: _120  and  _121
REMARK   49  A    between atoms: _120  and  _123
REMARK   50  A    between atoms: _123  and  _124
REMARK   51  A    between atoms: _129  and  _130
REMARK   52  A    between atoms: _132  and  _134
REMARK   53  A    between atoms: _134  and  _135
REMARK   54  A    between atoms: _134  and  _137
REMARK   55  A    between atoms: _137  and  _138
REMARK   56  A    between atoms: _141  and  _143
REMARK   57  A    between atoms: _143  and  _144
REMARK   58  A    between atoms: _143  and  _146
REMARK   59  A    between atoms: _146  and  _147
REMARK   60  A    between atoms: _152  and  _153
REMARK   61  A    between atoms: _156  and  _157
REMARK   62  A    between atoms: _162  and  _164
REMARK   63  A    between atoms: _164  and  _165
REMARK   64  A    between atoms: _164  and  _167
REMARK   65  A    between atoms: _167  and  _168
REMARK   66  A    between atoms: _173  and  _175
REMARK   67  A    between atoms: _175  and  _176
REMARK   68  A    between atoms: _175  and  _178
REMARK   69  A    between atoms: _178  and  _179
REMARK   70  A    between atoms: _182  and  _184
REMARK   71  A    between atoms: _184  and  _185
REMARK   72  A    between atoms: _184  and  _187
REMARK   73  A    between atoms: _187  and  _188
REMARK   74  A    between atoms: _193  and  _195
REMARK   75  A    between atoms: _195  and  _196
REMARK   76  A    between atoms: _195  and  _198
REMARK   77  A    between atoms: _198  and  _199
REMARK   78  A    between atoms: _205  and  _207
REMARK   79  A    between atoms: _207  and  _208
REMARK   80  A    between atoms: _207  and  _210
REMARK   81  A    between atoms: _210  and  _211
REMARK   82  A    between atoms: _217  and  _219
REMARK   83  A    between atoms: _219  and  _220
REMARK   84  A    between atoms: _219  and  _222
REMARK   85  A    between atoms: _222  and  _223
REMARK   86  A    between atoms: _223  and  _224
REMARK   87  A    between atoms: _227  and  _229
REMARK   88  A    between atoms: _229  and  _230
REMARK   89  A    between atoms: _229  and  _232
REMARK   90  A    between atoms: _232  and  _233
REMARK   91  A    between atoms: _233  and  _234
REMARK   92  A    between atoms: _234  and  _235
REMARK   93  A    between atoms: _244  and  _246
REMARK   94  A    between atoms: _246  and  _247
REMARK   95  A    between atoms: _246  and  _249
REMARK   96  A    between atoms: _249  and  _250
REMARK   97  A    between atoms: _250  and  _251
REMARK   98  A    between atoms: _254  and  _256
REMARK   99  A    between atoms: _256  and  _257
REMARK  100  A    between atoms: _256  and  _259
REMARK  101  A    between atoms: _259  and  _260
REMARK  102  A    between atoms: _265  and  _267
REMARK  103  A    between atoms: _267  and  _268
REMARK  104  A    between atoms: _267  and  _270
REMARK  105  A    between atoms: _270  and  _271
REMARK  106  A    between atoms: _274  and  _276
REMARK  107  A    between atoms: _276  and  _277
REMARK  108  A    between atoms: _276  and  _279
REMARK  109  A    between atoms: _279  and  _280
REMARK  110  A    between atoms: _283  and  _285
REMARK  111  A    between atoms: _285  and  _286
REMARK  112  A    between atoms: _285  and  _288
REMARK  113  A    between atoms: _288  and  _289
REMARK  114  A    between atoms: _294  and  _296
REMARK  115  A    between atoms: _296  and  _297
REMARK  116  A    between atoms: _296  and  _299
REMARK  117  A    between atoms: _299  and  _300
REMARK  118  A    between atoms: _303  and  _305
REMARK  119  A    between atoms: _305  and  _306
REMARK  120  A    between atoms: _305  and  _308
REMARK  121  A    between atoms: _308  and  _309
REMARK  122  A    between atoms: _314  and  _316
REMARK  123  A    between atoms: _316  and  _317
REMARK  124  A    between atoms: _316  and  _319
REMARK  125  A    between atoms: _319  and  _320
REMARK  126  A    between atoms: _325  and  _327
REMARK  127  A    between atoms: _327  and  _328
REMARK  128  A    between atoms: _327  and  _330
REMARK  129  A    between atoms: _330  and  _331
REMARK  130  A    between atoms: _334  and  _336
REMARK  131  A    between atoms: _336  and  _337
REMARK  132  A    between atoms: _336  and  _339
REMARK  133  A    between atoms: _342  and  _344
REMARK  134  A    between atoms: _344  and  _345
REMARK  135  A    between atoms: _344  and  _347
REMARK  136  A    between atoms: _347  and  _348
REMARK  137  A    between atoms: _351  and  _353
REMARK  138  A    between atoms: _353  and  _354
REMARK  139  A    between atoms: _353  and  _356
REMARK  140  A    between atoms: _356  and  _357
REMARK  141  A    between atoms: _357  and  _358
REMARK  142  A    between atoms: _361  and  _363
REMARK  143  A    between atoms: _363  and  _364
REMARK  144  A    between atoms: _367  and  _369
REMARK  145  A    between atoms: _369  and  _370
REMARK  146  A    between atoms: _369  and  _372
REMARK  147  A    between atoms: _372  and  _373
REMARK  148  A    between atoms: _376  and  _378
REMARK  149  A    between atoms: _378  and  _379
REMARK  150  A    between atoms: _378  and  _381
REMARK  151  A    between atoms: _381  and  _382
REMARK  152  A    between atoms: _382  and  _383
REMARK  153  A    between atoms: _386  and  _388
REMARK  154  A    between atoms: _388  and  _389
REMARK  155  A    between atoms: _388  and  _391
REMARK  156  A    between atoms: _391  and  _392
REMARK  157  A    between atoms: _397  and  _399
REMARK  158  A    between atoms: _399  and  _400
REMARK  159  A    between atoms: _402  and  _404
REMARK  160  A    between atoms: _404  and  _405
REMARK  161  A    between atoms: _404  and  _407
REMARK  162  A    between atoms: _410  and  _412
REMARK  163  A    between atoms: _412  and  _413
REMARK  164  A    between atoms: _416  and  _418
REMARK  165  A    between atoms: _418  and  _419
REMARK  166  A    between atoms: _418  and  _421
REMARK  167  A    between atoms: _421  and  _422
REMARK  168  A    between atoms: _427  and  _429
REMARK  169  A    between atoms: _429  and  _430
REMARK  170  A    between atoms: _429  and  _432
REMARK  171  A    between atoms: _432  and  _433
REMARK  172  A    between atoms: _433  and  _434
REMARK  173  A    between atoms: _434  and  _435
REMARK  174  A    between atoms: _435  and  _436
REMARK  175  A    between atoms: _440  and  _442
REMARK  176  A    between atoms: _442  and  _443
REMARK  177  A    between atoms: _442  and  _445
REMARK  178  A    between atoms: _445  and  _446
REMARK  179  A    between atoms: _449  and  _451
REMARK  180  A    between atoms: _451  and  _452
REMARK  181  A    between atoms: _451  and  _454
REMARK  182  A    between atoms: _454  and  _455
REMARK  183  A    between atoms: _460  and  _462
REMARK  184  A    between atoms: _462  and  _463
REMARK  185  A    between atoms: _465  and  _467
REMARK  186  A    between atoms: _467  and  _468
REMARK  187  A    between atoms: _467  and  _470
REMARK  188  A    between atoms: _470  and  _471
REMARK  189  A    between atoms: _471  and  _472
REMARK  190  A    between atoms: _472  and  _473
REMARK  191  A    between atoms: _473  and  _474
REMARK  192  A    between atoms: _478  and  _480
REMARK  193  A    between atoms: _480  and  _481
REMARK  194  A    between atoms: _480  and  _483
REMARK  195  A    between atoms: _483  and  _484
REMARK  196  A    between atoms: _484  and  _485
REMARK  197  A    between atoms: _485  and  _486
REMARK  198  A    between atoms: _495  and  _497
REMARK  199  A    between atoms: _497  and  _498
REMARK  200  A    between atoms: _497  and  _500
REMARK  201  A    between atoms: _500  and  _501
REMARK  202  A    between atoms: _506  and  _507
REMARK  203  A    between atoms: _509  and  _511
REMARK  204  A    between atoms: _511  and  _512
REMARK  205  A    between atoms: _511  and  _514
REMARK  206  A    between atoms: _514  and  _515
REMARK  207  A    between atoms: _515  and  _516
REMARK  208  A    between atoms: _516  and  _517
REMARK  209  A    between atoms: _517  and  _518
REMARK  210  A    between atoms: _522  and  _524
REMARK  211  A    between atoms: _524  and  _525
REMARK  212  A    between atoms: _524  and  _527
REMARK  213  A    between atoms: _527  and  _528
REMARK  214  A    between atoms: _530  and  _532
REMARK  215  A    between atoms: _532  and  _533
REMARK  216  A    between atoms: _532  and  _535
REMARK  217  A    between atoms: _535  and  _536
REMARK  218  A    between atoms: _539  and  _541
REMARK  219  A    between atoms: _541  and  _542
REMARK  220  A    between atoms: _541  and  _544
REMARK  221  A    between atoms: _544  and  _545
REMARK  222  A    between atoms: _545  and  _546
REMARK  223  A    between atoms: _549  and  _551
REMARK  224  A    between atoms: _551  and  _552
REMARK  225  A    between atoms: _555  and  _557
REMARK  226  A    between atoms: _557  and  _558
REMARK  227  A    between atoms: _557  and  _560
REMARK  228  A    between atoms: _560  and  _561
REMARK  229  A    between atoms: _563  and  _565
REMARK  230  A    between atoms: _565  and  _566
REMARK  231  A    between atoms: _568  and  _570
REMARK  232  A    between atoms: _570  and  _571
REMARK  233  A    between atoms: _570  and  _573
REMARK  234  A    between atoms: _573  and  _574
REMARK  235  A    between atoms: _577  and  _579
REMARK  236  A    between atoms: _579  and  _580
REMARK  237  A    between atoms: _582  and  _584
REMARK  238  A    between atoms: _584  and  _585
REMARK  239  A    between atoms: _584  and  _587
REMARK  240  A    between atoms: _587  and  _588
REMARK  241  A    between atoms: _593  and  _595
REMARK  242  A    between atoms: _595  and  _596
REMARK  243  A    between atoms: _595  and  _598
REMARK  244  A    between atoms: _598  and  _599
REMARK  245  A    between atoms: _599  and  _600
REMARK  246  A    between atoms: _607  and  _608
REMARK  247  A    between atoms: _608  and  _624
REMARK  248  A    between atoms: _609  and  _611
REMARK  249  A    between atoms: _611  and  _612
REMARK  250  A    between atoms: _612  and  _613
REMARK  251  A    between atoms: _617  and  _619
REMARK  252  A    between atoms: _619  and  _620
REMARK  253  A    between atoms: _619  and  _627
REMARK  254  A    between atoms: _620  and  _621
REMARK  255  A    between atoms: _621  and  _622
REMARK  256  A    between atoms: _622  and  _623
REMARK  257  A    between atoms: _623  and  _624
REMARK  258  A    between atoms: _629  and  _631
REMARK  259  A    between atoms: _631  and  _632
REMARK  260  A    between atoms: _631  and  _634
REMARK  261  A    between atoms: _634  and  _635
REMARK  262  A    between atoms: _638  and  _640
REMARK  263  A    between atoms: _640  and  _641
REMARK  264  A    between atoms: _643  and  _645
REMARK  265  A    between atoms: _645  and  _646
REMARK  266  A    between atoms: _649  and  _651
REMARK  267  A    between atoms: _651  and  _652
REMARK  268  A    between atoms: _651  and  _654
REMARK  269  A    between atoms: _654  and  _655
REMARK  270  A    between atoms: _660  and  _661
REMARK                            x       y       z     vdW  Elec       q    Type
REMARK                         _______ _______ _______ _____ _____    ______ ____
ROOT
ATOM      1  O   HOH     1      41.298  26.488  37.470  0.00  0.00    +0.000 OA
ENDROOT
TORSDOF 0
REMARK  Name = ../refined-set-2016/2qrm/2qrm_pocket.pdb
REMARK  270 active torsions:
REMARK  status: ('A' for Active; 'I' for Inactive)
REMARK    1  A    between atoms: _1  and  _3
REMARK    2  A    between atoms: _3  and  _4
REMARK    3  A    between atoms: _3  and  _6
REMARK    4  A    between atoms: _6  and  _7
REMARK    5  A    between atoms: _12  and  _13
REMARK    6  A    between atoms: _15  and  _17
REMARK    7  A    between atoms: _17  and  _18
REMARK    8  A    between atoms: _17  and  _20
REMARK    9  A    between atoms: _20  and  _21
REMARK   10  A    between atoms: _24  and  _26
REMARK   11  A    between atoms: _26  and  _27
REMARK   12  A    between atoms: _26  and  _29
REMARK   13  A    between atoms: _29  and  _30
REMARK   14  A    between atoms: _30  and  _31
REMARK   15  A    between atoms: _34  and  _36
REMARK   16  A    between atoms: _36  and  _37
REMARK   17  A    between atoms: _39  and  _41
REMARK   18  A    between atoms: _41  and  _42
REMARK   19  A    between atoms: _41  and  _44
REMARK   20  A    between atoms: _44  and  _45
REMARK   21  A    between atoms: _50  and  _52
REMARK   22  A    between atoms: _52  and  _53
REMARK   23  A    between atoms: _55  and  _57
REMARK   24  A    between atoms: _57  and  _58
REMARK   25  A    between atoms: _60  and  _62
REMARK   26  A    between atoms: _62  and  _63
REMARK   27  A    between atoms: _62  and  _65
REMARK   28  A    between atoms: _65  and  _66
REMARK   29  A    between atoms: _69  and  _71
REMARK   30  A    between atoms: _71  and  _72
REMARK   31  A    between atoms: _74  and  _76
REMARK   32  A    between atoms: _76  and  _77
REMARK   33  A    between atoms: _76  and  _79
REMARK   34  A    between atoms: _79  and  _80
REMARK   35  A    between atoms: _80  and  _81
REMARK   36  A    between atoms: _81  and  _82
REMARK   37  A    between atoms: _91  and  _93
REMARK   38  A    between atoms: _93  and  _94
REMARK   39  A    between atoms: _93  and  _96
REMARK   40  A    between atoms: _96  and  _97
REMARK   41  A    between atoms: _100  and  _102
REMARK   42  A    between atoms: _102  and  _103
REMARK   43  A    between atoms: _106  and  _108
REMARK   44  A    between atoms: _108  and  _109
REMARK   45  A    between atoms: _108  and  _111
REMARK   46  A    between atoms: _111  and  _112
REMARK   47  A    between atoms: _118  and  _120
REMARK   48  A    between atoms: _120  and  _121
REMARK   49  A    between atoms: _120  and  _123
REMARK   50  A    between atoms: _123  and  _124
REMARK   51  A    between atoms: _129  and  _130
REMARK   52  A    between atoms: _132  and  _134
REMARK   53  A    between atoms: _134  and  _135
REMARK   54  A    between atoms: _134  and  _137
REMARK   55  A    between atoms: _137  and  _138
REMARK   56  A    between atoms: _141  and  _143
REMARK   57  A    between atoms: _143  and  _144
REMARK   58  A    between atoms: _143  and  _146
REMARK   59  A    between atoms: _146  and  _147
REMARK   60  A    between atoms: _152  and  _153
REMARK   61  A    between atoms: _156  and  _157
REMARK   62  A    between atoms: _162  and  _164
REMARK   63  A    between atoms: _164  and  _165
REMARK   64  A    between atoms: _164  and  _167
REMARK   65  A    between atoms: _167  and  _168
REMARK   66  A    between atoms: _173  and  _175
REMARK   67  A    between atoms: _175  and  _176
REMARK   68  A    between atoms: _175  and  _178
REMARK   69  A    between atoms: _178  and  _179
REMARK   70  A    between atoms: _182  and  _184
REMARK   71  A    between atoms: _184  and  _185
REMARK   72  A    between atoms: _184  and  _187
REMARK   73  A    between atoms: _187  and  _188
REMARK   74  A    between atoms: _193  and  _195
REMARK   75  A    between atoms: _195  and  _196
REMARK   76  A    between atoms: _195  and  _198
REMARK   77  A    between atoms: _198  and  _199
REMARK   78  A    between atoms: _205  and  _207
REMARK   79  A    between atoms: _207  and  _208
REMARK   80  A    between atoms: _207  and  _210
REMARK   81  A    between atoms: _210  and  _211
REMARK   82  A    between atoms: _217  and  _219
REMARK   83  A    between atoms: _219  and  _220
REMARK   84  A    between atoms: _219  and  _222
REMARK   85  A    between atoms: _222  and  _223
REMARK   86  A    between atoms: _223  and  _224
REMARK   87  A    between atoms: _227  and  _229
REMARK   88  A    between atoms: _229  and  _230
REMARK   89  A    between atoms: _229  and  _232
REMARK   90  A    between atoms: _232  and  _233
REMARK   91  A    between atoms: _233  and  _234
REMARK   92  A    between atoms: _234  and  _235
REMARK   93  A    between atoms: _244  and  _246
REMARK   94  A    between atoms: _246  and  _247
REMARK   95  A    between atoms: _246  and  _249
REMARK   96  A    between atoms: _249  and  _250
REMARK   97  A    between atoms: _250  and  _251
REMARK   98  A    between atoms: _254  and  _256
REMARK   99  A    between atoms: _256  and  _257
REMARK  100  A    between atoms: _256  and  _259
REMARK  101  A    between atoms: _259  and  _260
REMARK  102  A    between atoms: _265  and  _267
REMARK  103  A    between atoms: _267  and  _268
REMARK  104  A    between atoms: _267  and  _270
REMARK  105  A    between atoms: _270  and  _271
REMARK  106  A    between atoms: _274  and  _276
REMARK  107  A    between atoms: _276  and  _277
REMARK  108  A    between atoms: _276  and  _279
REMARK  109  A    between atoms: _279  and  _280
REMARK  110  A    between atoms: _283  and  _285
REMARK  111  A    between atoms: _285  and  _286
REMARK  112  A    between atoms: _285  and  _288
REMARK  113  A    between atoms: _288  and  _289
REMARK  114  A    between atoms: _294  and  _296
REMARK  115  A    between atoms: _296  and  _297
REMARK  116  A    between atoms: _296  and  _299
REMARK  117  A    between atoms: _299  and  _300
REMARK  118  A    between atoms: _303  and  _305
REMARK  119  A    between atoms: _305  and  _306
REMARK  120  A    between atoms: _305  and  _308
REMARK  121  A    between atoms: _308  and  _309
REMARK  122  A    between atoms: _314  and  _316
REMARK  123  A    between atoms: _316  and  _317
REMARK  124  A    between atoms: _316  and  _319
REMARK  125  A    between atoms: _319  and  _320
REMARK  126  A    between atoms: _325  and  _327
REMARK  127  A    between atoms: _327  and  _328
REMARK  128  A    between atoms: _327  and  _330
REMARK  129  A    between atoms: _330  and  _331
REMARK  130  A    between atoms: _334  and  _336
REMARK  131  A    between atoms: _336  and  _337
REMARK  132  A    between atoms: _336  and  _339
REMARK  133  A    between atoms: _342  and  _344
REMARK  134  A    between atoms: _344  and  _345
REMARK  135  A    between atoms: _344  and  _347
REMARK  136  A    between atoms: _347  and  _348
REMARK  137  A    between atoms: _351  and  _353
REMARK  138  A    between atoms: _353  and  _354
REMARK  139  A    between atoms: _353  and  _356
REMARK  140  A    between atoms: _356  and  _357
REMARK  141  A    between atoms: _357  and  _358
REMARK  142  A    between atoms: _361  and  _363
REMARK  143  A    between atoms: _363  and  _364
REMARK  144  A    between atoms: _367  and  _369
REMARK  145  A    between atoms: _369  and  _370
REMARK  146  A    between atoms: _369  and  _372
REMARK  147  A    between atoms: _372  and  _373
REMARK  148  A    between atoms: _376  and  _378
REMARK  149  A    between atoms: _378  and  _379
REMARK  150  A    between atoms: _378  and  _381
REMARK  151  A    between atoms: _381  and  _382
REMARK  152  A    between atoms: _382  and  _383
REMARK  153  A    between atoms: _386  and  _388
REMARK  154  A    between atoms: _388  and  _389
REMARK  155  A    between atoms: _388  and  _391
REMARK  156  A    between atoms: _391  and  _392
REMARK  157  A    between atoms: _397  and  _399
REMARK  158  A    between atoms: _399  and  _400
REMARK  159  A    between atoms: _402  and  _404
REMARK  160  A    between atoms: _404  and  _405
REMARK  161  A    between atoms: _404  and  _407
REMARK  162  A    between atoms: _410  and  _412
REMARK  163  A    between atoms: _412  and  _413
REMARK  164  A    between atoms: _416  and  _418
REMARK  165  A    between atoms: _418  and  _419
REMARK  166  A    between atoms: _418  and  _421
REMARK  167  A    between atoms: _421  and  _422
REMARK  168  A    between atoms: _427  and  _429
REMARK  169  A    between atoms: _429  and  _430
REMARK  170  A    between atoms: _429  and  _432
REMARK  171  A    between atoms: _432  and  _433
REMARK  172  A    between atoms: _433  and  _434
REMARK  173  A    between atoms: _434  and  _435
REMARK  174  A    between atoms: _435  and  _436
REMARK  175  A    between atoms: _440  and  _442
REMARK  176  A    between atoms: _442  and  _443
REMARK  177  A    between atoms: _442  and  _445
REMARK  178  A    between atoms: _445  and  _446
REMARK  179  A    between atoms: _449  and  _451
REMARK  180  A    between atoms: _451  and  _452
REMARK  181  A    between atoms: _451  and  _454
REMARK  182  A    between atoms: _454  and  _455
REMARK  183  A    between atoms: _460  and  _462
REMARK  184  A    between atoms: _462  and  _463
REMARK  185  A    between atoms: _465  and  _467
REMARK  186  A    between atoms: _467  and  _468
REMARK  187  A    between atoms: _467  and  _470
REMARK  188  A    between atoms: _470  and  _471
REMARK  189  A    between atoms: _471  and  _472
REMARK  190  A    between atoms: _472  and  _473
REMARK  191  A    between atoms: _473  and  _474
REMARK  192  A    between atoms: _478  and  _480
REMARK  193  A    between atoms: _480  and  _481
REMARK  194  A    between atoms: _480  and  _483
REMARK  195  A    between atoms: _483  and  _484
REMARK  196  A    between atoms: _484  and  _485
REMARK  197  A    between atoms: _485  and  _486
REMARK  198  A    between atoms: _495  and  _497
REMARK  199  A    between atoms: _497  and  _498
REMARK  200  A    between atoms: _497  and  _500
REMARK  201  A    between atoms: _500  and  _501
REMARK  202  A    between atoms: _506  and  _507
REMARK  203  A    between atoms: _509  and  _511
REMARK  204  A    between atoms: _511  and  _512
REMARK  205  A    between atoms: _511  and  _514
REMARK  206  A    between atoms: _514  and  _515
REMARK  207  A    between atoms: _515  and  _516
REMARK  208  A    between atoms: _516  and  _517
REMARK  209  A    between atoms: _517  and  _518
REMARK  210  A    between atoms: _522  and  _524
REMARK  211  A    between atoms: _524  and  _525
REMARK  212  A    between atoms: _524  and  _527
REMARK  213  A    between atoms: _527  and  _528
REMARK  214  A    between atoms: _530  and  _532
REMARK  215  A    between atoms: _532  and  _533
REMARK  216  A    between atoms: _532  and  _535
REMARK  217  A    between atoms: _535  and  _536
REMARK  218  A    between atoms: _539  and  _541
REMARK  219  A    between atoms: _541  and  _542
REMARK  220  A    between atoms: _541  and  _544
REMARK  221  A    between atoms: _544  and  _545
REMARK  222  A    between atoms: _545  and  _546
REMARK  223  A    between atoms: _549  and  _551
REMARK  224  A    between atoms: _551  and  _552
REMARK  225  A    between atoms: _555  and  _557
REMARK  226  A    between atoms: _557  and  _558
REMARK  227  A    between atoms: _557  and  _560
REMARK  228  A    between atoms: _560  and  _561
REMARK  229  A    between atoms: _563  and  _565
REMARK  230  A    between atoms: _565  and  _566
REMARK  231  A    between atoms: _568  and  _570
REMARK  232  A    between atoms: _570  and  _571
REMARK  233  A    between atoms: _570  and  _573
REMARK  234  A    between atoms: _573  and  _574
REMARK  235  A    between atoms: _577  and  _579
REMARK  236  A    between atoms: _579  and  _580
REMARK  237  A    between atoms: _582  and  _584
REMARK  238  A    between atoms: _584  and  _585
REMARK  239  A    between atoms: _584  and  _587
REMARK  240  A    between atoms: _587  and  _588
REMARK  241  A    between atoms: _593  and  _595
REMARK  242  A    between atoms: _595  and  _596
REMARK  243  A    between atoms: _595  and  _598
REMARK  244  A    between atoms: _598  and  _599
REMARK  245  A    between atoms: _599  and  _600
REMARK  246  A    between atoms: _607  and  _608
REMARK  247  A    between atoms: _608  and  _624
REMARK  248  A    between atoms: _609  and  _611
REMARK  249  A    between atoms: _611  and  _612
REMARK  250  A    between atoms: _612  and  _613
REMARK  251  A    between atoms: _617  and  _619
REMARK  252  A    between atoms: _619  and  _620
REMARK  253  A    between atoms: _619  and  _627
REMARK  254  A    between atoms: _620  and  _621
REMARK  255  A    between atoms: _621  and  _622
REMARK  256  A    between atoms: _622  and  _623
REMARK  257  A    between atoms: _623  and  _624
REMARK  258  A    between atoms: _629  and  _631
REMARK  259  A    between atoms: _631  and  _632
REMARK  260  A    between atoms: _631  and  _634
REMARK  261  A    between atoms: _634  and  _635
REMARK  262  A    between atoms: _638  and  _640
REMARK  263  A    between atoms: _640  and  _641
REMARK  264  A    between atoms: _643  and  _645
REMARK  265  A    between atoms: _645  and  _646
REMARK  266  A    between atoms: _649  and  _651
REMARK  267  A    between atoms: _651  and  _652
REMARK  268  A    between atoms: _651  and  _654
REMARK  269  A    between atoms: _654  and  _655
REMARK  270  A    between atoms: _660  and  _661
REMARK                            x       y       z     vdW  Elec       q    Type
REMARK                         _______ _______ _______ _____ _____    ______ ____
ROOT
ATOM      1  O   HOH     1      36.808  22.348  18.079  0.00  0.00    +0.000 OA
ENDROOT
TORSDOF 0
REMARK  Name = ../refined-set-2016/2qrm/2qrm_pocket.pdb
REMARK  270 active torsions:
REMARK  status: ('A' for Active; 'I' for Inactive)
REMARK    1  A    between atoms: _1  and  _3
REMARK    2  A    between atoms: _3  and  _4
REMARK    3  A    between atoms: _3  and  _6
REMARK    4  A    between atoms: _6  and  _7
REMARK    5  A    between atoms: _12  and  _13
REMARK    6  A    between atoms: _15  and  _17
REMARK    7  A    between atoms: _17  and  _18
REMARK    8  A    between atoms: _17  and  _20
REMARK    9  A    between atoms: _20  and  _21
REMARK   10  A    between atoms: _24  and  _26
REMARK   11  A    between atoms: _26  and  _27
REMARK   12  A    between atoms: _26  and  _29
REMARK   13  A    between atoms: _29  and  _30
REMARK   14  A    between atoms: _30  and  _31
REMARK   15  A    between atoms: _34  and  _36
REMARK   16  A    between atoms: _36  and  _37
REMARK   17  A    between atoms: _39  and  _41
REMARK   18  A    between atoms: _41  and  _42
REMARK   19  A    between atoms: _41  and  _44
REMARK   20  A    between atoms: _44  and  _45
REMARK   21  A    between atoms: _50  and  _52
REMARK   22  A    between atoms: _52  and  _53
REMARK   23  A    between atoms: _55  and  _57
REMARK   24  A    between atoms: _57  and  _58
REMARK   25  A    between atoms: _60  and  _62
REMARK   26  A    between atoms: _62  and  _63
REMARK   27  A    between atoms: _62  and  _65
REMARK   28  A    between atoms: _65  and  _66
REMARK   29  A    between atoms: _69  and  _71
REMARK   30  A    between atoms: _71  and  _72
REMARK   31  A    between atoms: _74  and  _76
REMARK   32  A    between atoms: _76  and  _77
REMARK   33  A    between atoms: _76  and  _79
REMARK   34  A    between atoms: _79  and  _80
REMARK   35  A    between atoms: _80  and  _81
REMARK   36  A    between atoms: _81  and  _82
REMARK   37  A    between atoms: _91  and  _93
REMARK   38  A    between atoms: _93  and  _94
REMARK   39  A    between atoms: _93  and  _96
REMARK   40  A    between atoms: _96  and  _97
REMARK   41  A    between atoms: _100  and  _102
REMARK   42  A    between atoms: _102  and  _103
REMARK   43  A    between atoms: _106  and  _108
REMARK   44  A    between atoms: _108  and  _109
REMARK   45  A    between atoms: _108  and  _111
REMARK   46  A    between atoms: _111  and  _112
REMARK   47  A    between atoms: _118  and  _120
REMARK   48  A    between atoms: _120  and  _121
REMARK   49  A    between atoms: _120  and  _123
REMARK   50  A    between atoms: _123  and  _124
REMARK   51  A    between atoms: _129  and  _130
REMARK   52  A    between atoms: _132  and  _134
REMARK   53  A    between atoms: _134  and  _135
REMARK   54  A    between atoms: _134  and  _137
REMARK   55  A    between atoms: _137  and  _138
REMARK   56  A    between atoms: _141  and  _143
REMARK   57  A    between atoms: _143  and  _144
REMARK   58  A    between atoms: _143  and  _146
REMARK   59  A    between atoms: _146  and  _147
REMARK   60  A    between atoms: _152  and  _153
REMARK   61  A    between atoms: _156  and  _157
REMARK   62  A    between atoms: _162  and  _164
REMARK   63  A    between atoms: _164  and  _165
REMARK   64  A    between atoms: _164  and  _167
REMARK   65  A    between atoms: _167  and  _168
REMARK   66  A    between atoms: _173  and  _175
REMARK   67  A    between atoms: _175  and  _176
REMARK   68  A    between atoms: _175  and  _178
REMARK   69  A    between atoms: _178  and  _179
REMARK   70  A    between atoms: _182  and  _184
REMARK   71  A    between atoms: _184  and  _185
REMARK   72  A    between atoms: _184  and  _187
REMARK   73  A    between atoms: _187  and  _188
REMARK   74  A    between atoms: _193  and  _195
REMARK   75  A    between atoms: _195  and  _196
REMARK   76  A    between atoms: _195  and  _198
REMARK   77  A    between atoms: _198  and  _199
REMARK   78  A    between atoms: _205  and  _207
REMARK   79  A    between atoms: _207  and  _208
REMARK   80  A    between atoms: _207  and  _210
REMARK   81  A    between atoms: _210  and  _211
REMARK   82  A    between atoms: _217  and  _219
REMARK   83  A    between atoms: _219  and  _220
REMARK   84  A    between atoms: _219  and  _222
REMARK   85  A    between atoms: _222  and  _223
REMARK   86  A    between atoms: _223  and  _224
REMARK   87  A    between atoms: _227  and  _229
REMARK   88  A    between atoms: _229  and  _230
REMARK   89  A    between atoms: _229  and  _232
REMARK   90  A    between atoms: _232  and  _233
REMARK   91  A    between atoms: _233  and  _234
REMARK   92  A    between atoms: _234  and  _235
REMARK   93  A    between atoms: _244  and  _246
REMARK   94  A    between atoms: _246  and  _247
REMARK   95  A    between atoms: _246  and  _249
REMARK   96  A    between atoms: _249  and  _250
REMARK   97  A    between atoms: _250  and  _251
REMARK   98  A    between atoms: _254  and  _256
REMARK   99  A    between atoms: _256  and  _257
REMARK  100  A    between atoms: _256  and  _259
REMARK  101  A    between atoms: _259  and  _260
REMARK  102  A    between atoms: _265  and  _267
REMARK  103  A    between atoms: _267  and  _268
REMARK  104  A    between atoms: _267  and  _270
REMARK  105  A    between atoms: _270  and  _271
REMARK  106  A    between atoms: _274  and  _276
REMARK  107  A    between atoms: _276  and  _277
REMARK  108  A    between atoms: _276  and  _279
REMARK  109  A    between atoms: _279  and  _280
REMARK  110  A    between atoms: _283  and  _285
REMARK  111  A    between atoms: _285  and  _286
REMARK  112  A    between atoms: _285  and  _288
REMARK  113  A    between atoms: _288  and  _289
REMARK  114  A    between atoms: _294  and  _296
REMARK  115  A    between atoms: _296  and  _297
REMARK  116  A    between atoms: _296  and  _299
REMARK  117  A    between atoms: _299  and  _300
REMARK  118  A    between atoms: _303  and  _305
REMARK  119  A    between atoms: _305  and  _306
REMARK  120  A    between atoms: _305  and  _308
REMARK  121  A    between atoms: _308  and  _309
REMARK  122  A    between atoms: _314  and  _316
REMARK  123  A    between atoms: _316  and  _317
REMARK  124  A    between atoms: _316  and  _319
REMARK  125  A    between atoms: _319  and  _320
REMARK  126  A    between atoms: _325  and  _327
REMARK  127  A    between atoms: _327  and  _328
REMARK  128  A    between atoms: _327  and  _330
REMARK  129  A    between atoms: _330  and  _331
REMARK  130  A    between atoms: _334  and  _336
REMARK  131  A    between atoms: _336  and  _337
REMARK  132  A    between atoms: _336  and  _339
REMARK  133  A    between atoms: _342  and  _344
REMARK  134  A    between atoms: _344  and  _345
REMARK  135  A    between atoms: _344  and  _347
REMARK  136  A    between atoms: _347  and  _348
REMARK  137  A    between atoms: _351  and  _353
REMARK  138  A    between atoms: _353  and  _354
REMARK  139  A    between atoms: _353  and  _356
REMARK  140  A    between atoms: _356  and  _357
REMARK  141  A    between atoms: _357  and  _358
REMARK  142  A    between atoms: _361  and  _363
REMARK  143  A    between atoms: _363  and  _364
REMARK  144  A    between atoms: _367  and  _369
REMARK  145  A    between atoms: _369  and  _370
REMARK  146  A    between atoms: _369  and  _372
REMARK  147  A    between atoms: _372  and  _373
REMARK  148  A    between atoms: _376  and  _378
REMARK  149  A    between atoms: _378  and  _379
REMARK  150  A    between atoms: _378  and  _381
REMARK  151  A    between atoms: _381  and  _382
REMARK  152  A    between atoms: _382  and  _383
REMARK  153  A    between atoms: _386  and  _388
REMARK  154  A    between atoms: _388  and  _389
REMARK  155  A    between atoms: _388  and  _391
REMARK  156  A    between atoms: _391  and  _392
REMARK  157  A    between atoms: _397  and  _399
REMARK  158  A    between atoms: _399  and  _400
REMARK  159  A    between atoms: _402  and  _404
REMARK  160  A    between atoms: _404  and  _405
REMARK  161  A    between atoms: _404  and  _407
REMARK  162  A    between atoms: _410  and  _412
REMARK  163  A    between atoms: _412  and  _413
REMARK  164  A    between atoms: _416  and  _418
REMARK  165  A    between atoms: _418  and  _419
REMARK  166  A    between atoms: _418  and  _421
REMARK  167  A    between atoms: _421  and  _422
REMARK  168  A    between atoms: _427  and  _429
REMARK  169  A    between atoms: _429  and  _430
REMARK  170  A    between atoms: _429  and  _432
REMARK  171  A    between atoms: _432  and  _433
REMARK  172  A    between atoms: _433  and  _434
REMARK  173  A    between atoms: _434  and  _435
REMARK  174  A    between atoms: _435  and  _436
REMARK  175  A    between atoms: _440  and  _442
REMARK  176  A    between atoms: _442  and  _443
REMARK  177  A    between atoms: _442  and  _445
REMARK  178  A    between atoms: _445  and  _446
REMARK  179  A    between atoms: _449  and  _451
REMARK  180  A    between atoms: _451  and  _452
REMARK  181  A    between atoms: _451  and  _454
REMARK  182  A    between atoms: _454  and  _455
REMARK  183  A    between atoms: _460  and  _462
REMARK  184  A    between atoms: _462  and  _463
REMARK  185  A    between atoms: _465  and  _467
REMARK  186  A    between atoms: _467  and  _468
REMARK  187  A    between atoms: _467  and  _470
REMARK  188  A    between atoms: _470  and  _471
REMARK  189  A    between atoms: _471  and  _472
REMARK  190  A    between atoms: _472  and  _473
REMARK  191  A    between atoms: _473  and  _474
REMARK  192  A    between atoms: _478  and  _480
REMARK  193  A    between atoms: _480  and  _481
REMARK  194  A    between atoms: _480  and  _483
REMARK  195  A    between atoms: _483  and  _484
REMARK  196  A    between atoms: _484  and  _485
REMARK  197  A    between atoms: _485  and  _486
REMARK  198  A    between atoms: _495  and  _497
REMARK  199  A    between atoms: _497  and  _498
REMARK  200  A    between atoms: _497  and  _500
REMARK  201  A    between atoms: _500  and  _501
REMARK  202  A    between atoms: _506  and  _507
REMARK  203  A    between atoms: _509  and  _511
REMARK  204  A    between atoms: _511  and  _512
REMARK  205  A    between atoms: _511  and  _514
REMARK  206  A    between atoms: _514  and  _515
REMARK  207  A    between atoms: _515  and  _516
REMARK  208  A    between atoms: _516  and  _517
REMARK  209  A    between atoms: _517  and  _518
REMARK  210  A    between atoms: _522  and  _524
REMARK  211  A    between atoms: _524  and  _525
REMARK  212  A    between atoms: _524  and  _527
REMARK  213  A    between atoms: _527  and  _528
REMARK  214  A    between atoms: _530  and  _532
REMARK  215  A    between atoms: _532  and  _533
REMARK  216  A    between atoms: _532  and  _535
REMARK  217  A    between atoms: _535  and  _536
REMARK  218  A    between atoms: _539  and  _541
REMARK  219  A    between atoms: _541  and  _542
REMARK  220  A    between atoms: _541  and  _544
REMARK  221  A    between atoms: _544  and  _545
REMARK  222  A    between atoms: _545  and  _546
REMARK  223  A    between atoms: _549  and  _551
REMARK  224  A    between atoms: _551  and  _552
REMARK  225  A    between atoms: _555  and  _557
REMARK  226  A    between atoms: _557  and  _558
REMARK  227  A    between atoms: _557  and  _560
REMARK  228  A    between atoms: _560  and  _561
REMARK  229  A    between atoms: _563  and  _565
REMARK  230  A    between atoms: _565  and  _566
REMARK  231  A    between atoms: _568  and  _570
REMARK  232  A    between atoms: _570  and  _571
REMARK  233  A    between atoms: _570  and  _573
REMARK  234  A    between atoms: _573  and  _574
REMARK  235  A    between atoms: _577  and  _579
REMARK  236  A    between atoms: _579  and  _580
REMARK  237  A    between atoms: _582  and  _584
REMARK  238  A    between atoms: _584  and  _585
REMARK  239  A    between atoms: _584  and  _587
REMARK  240  A    between atoms: _587  and  _588
REMARK  241  A    between atoms: _593  and  _595
REMARK  242  A    between atoms: _595  and  _596
REMARK  243  A    between atoms: _595  and  _598
REMARK  244  A    between atoms: _598  and  _599
REMARK  245  A    between atoms: _599  and  _600
REMARK  246  A    between atoms: _607  and  _608
REMARK  247  A    between atoms: _608  and  _624
REMARK  248  A    between atoms: _609  and  _611
REMARK  249  A    between atoms: _611  and  _612
REMARK  250  A    between atoms: _612  and  _613
REMARK  251  A    between atoms: _617  and  _619
REMARK  252  A    between atoms: _619  and  _620
REMARK  253  A    between atoms: _619  and  _627
REMARK  254  A    between atoms: _620  and  _621
REMARK  255  A    between atoms: _621  and  _622
REMARK  256  A    between atoms: _622  and  _623
REMARK  257  A    between atoms: _623  and  _624
REMARK  258  A    between atoms: _629  and  _631
REMARK  259  A    between atoms: _631  and  _632
REMARK  260  A    between atoms: _631  and  _634
REMARK  261  A    between atoms: _634  and  _635
REMARK  262  A    between atoms: _638  and  _640
REMARK  263  A    between atoms: _640  and  _641
REMARK  264  A    between atoms: _643  and  _645
REMARK  265  A    between atoms: _645  and  _646
REMARK  266  A    between atoms: _649  and  _651
REMARK  267  A    between atoms: _651  and  _652
REMARK  268  A    between atoms: _651  and  _654
REMARK  269  A    between atoms: _654  and  _655
REMARK  270  A    between atoms: _660  and  _661
REMARK                            x       y       z     vdW  Elec       q    Type
REMARK                         _______ _______ _______ _____ _____    ______ ____
ROOT
ATOM      1  O   HOH     1      29.581  26.208  18.321  0.00  0.00    +0.000 OA
ENDROOT
TORSDOF 0
REMARK  Name = ../refined-set-2016/2qrm/2qrm_pocket.pdb
REMARK  270 active torsions:
REMARK  status: ('A' for Active; 'I' for Inactive)
REMARK    1  A    between atoms: _1  and  _3
REMARK    2  A    between atoms: _3  and  _4
REMARK    3  A    between atoms: _3  and  _6
REMARK    4  A    between atoms: _6  and  _7
REMARK    5  A    between atoms: _12  and  _13
REMARK    6  A    between atoms: _15  and  _17
REMARK    7  A    between atoms: _17  and  _18
REMARK    8  A    between atoms: _17  and  _20
REMARK    9  A    between atoms: _20  and  _21
REMARK   10  A    between atoms: _24  and  _26
REMARK   11  A    between atoms: _26  and  _27
REMARK   12  A    between atoms: _26  and  _29
REMARK   13  A    between atoms: _29  and  _30
REMARK   14  A    between atoms: _30  and  _31
REMARK   15  A    between atoms: _34  and  _36
REMARK   16  A    between atoms: _36  and  _37
REMARK   17  A    between atoms: _39  and  _41
REMARK   18  A    between atoms: _41  and  _42
REMARK   19  A    between atoms: _41  and  _44
REMARK   20  A    between atoms: _44  and  _45
REMARK   21  A    between atoms: _50  and  _52
REMARK   22  A    between atoms: _52  and  _53
REMARK   23  A    between atoms: _55  and  _57
REMARK   24  A    between atoms: _57  and  _58
REMARK   25  A    between atoms: _60  and  _62
REMARK   26  A    between atoms: _62  and  _63
REMARK   27  A    between atoms: _62  and  _65
REMARK   28  A    between atoms: _65  and  _66
REMARK   29  A    between atoms: _69  and  _71
REMARK   30  A    between atoms: _71  and  _72
REMARK   31  A    between atoms: _74  and  _76
REMARK   32  A    between atoms: _76  and  _77
REMARK   33  A    between atoms: _76  and  _79
REMARK   34  A    between atoms: _79  and  _80
REMARK   35  A    between atoms: _80  and  _81
REMARK   36  A    between atoms: _81  and  _82
REMARK   37  A    between atoms: _91  and  _93
REMARK   38  A    between atoms: _93  and  _94
REMARK   39  A    between atoms: _93  and  _96
REMARK   40  A    between atoms: _96  and  _97
REMARK   41  A    between atoms: _100  and  _102
REMARK   42  A    between atoms: _102  and  _103
REMARK   43  A    between atoms: _106  and  _108
REMARK   44  A    between atoms: _108  and  _109
REMARK   45  A    between atoms: _108  and  _111
REMARK   46  A    between atoms: _111  and  _112
REMARK   47  A    between atoms: _118  and  _120
REMARK   48  A    between atoms: _120  and  _121
REMARK   49  A    between atoms: _120  and  _123
REMARK   50  A    between atoms: _123  and  _124
REMARK   51  A    between atoms: _129  and  _130
REMARK   52  A    between atoms: _132  and  _134
REMARK   53  A    between atoms: _134  and  _135
REMARK   54  A    between atoms: _134  and  _137
REMARK   55  A    between atoms: _137  and  _138
REMARK   56  A    between atoms: _141  and  _143
REMARK   57  A    between atoms: _143  and  _144
REMARK   58  A    between atoms: _143  and  _146
REMARK   59  A    between atoms: _146  and  _147
REMARK   60  A    between atoms: _152  and  _153
REMARK   61  A    between atoms: _156  and  _157
REMARK   62  A    between atoms: _162  and  _164
REMARK   63  A    between atoms: _164  and  _165
REMARK   64  A    between atoms: _164  and  _167
REMARK   65  A    between atoms: _167  and  _168
REMARK   66  A    between atoms: _173  and  _175
REMARK   67  A    between atoms: _175  and  _176
REMARK   68  A    between atoms: _175  and  _178
REMARK   69  A    between atoms: _178  and  _179
REMARK   70  A    between atoms: _182  and  _184
REMARK   71  A    between atoms: _184  and  _185
REMARK   72  A    between atoms: _184  and  _187
REMARK   73  A    between atoms: _187  and  _188
REMARK   74  A    between atoms: _193  and  _195
REMARK   75  A    between atoms: _195  and  _196
REMARK   76  A    between atoms: _195  and  _198
REMARK   77  A    between atoms: _198  and  _199
REMARK   78  A    between atoms: _205  and  _207
REMARK   79  A    between atoms: _207  and  _208
REMARK   80  A    between atoms: _207  and  _210
REMARK   81  A    between atoms: _210  and  _211
REMARK   82  A    between atoms: _217  and  _219
REMARK   83  A    between atoms: _219  and  _220
REMARK   84  A    between atoms: _219  and  _222
REMARK   85  A    between atoms: _222  and  _223
REMARK   86  A    between atoms: _223  and  _224
REMARK   87  A    between atoms: _227  and  _229
REMARK   88  A    between atoms: _229  and  _230
REMARK   89  A    between atoms: _229  and  _232
REMARK   90  A    between atoms: _232  and  _233
REMARK   91  A    between atoms: _233  and  _234
REMARK   92  A    between atoms: _234  and  _235
REMARK   93  A    between atoms: _244  and  _246
REMARK   94  A    between atoms: _246  and  _247
REMARK   95  A    between atoms: _246  and  _249
REMARK   96  A    between atoms: _249  and  _250
REMARK   97  A    between atoms: _250  and  _251
REMARK   98  A    between atoms: _254  and  _256
REMARK   99  A    between atoms: _256  and  _257
REMARK  100  A    between atoms: _256  and  _259
REMARK  101  A    between atoms: _259  and  _260
REMARK  102  A    between atoms: _265  and  _267
REMARK  103  A    between atoms: _267  and  _268
REMARK  104  A    between atoms: _267  and  _270
REMARK  105  A    between atoms: _270  and  _271
REMARK  106  A    between atoms: _274  and  _276
REMARK  107  A    between atoms: _276  and  _277
REMARK  108  A    between atoms: _276  and  _279
REMARK  109  A    between atoms: _279  and  _280
REMARK  110  A    between atoms: _283  and  _285
REMARK  111  A    between atoms: _285  and  _286
REMARK  112  A    between atoms: _285  and  _288
REMARK  113  A    between atoms: _288  and  _289
REMARK  114  A    between atoms: _294  and  _296
REMARK  115  A    between atoms: _296  and  _297
REMARK  116  A    between atoms: _296  and  _299
REMARK  117  A    between atoms: _299  and  _300
REMARK  118  A    between atoms: _303  and  _305
REMARK  119  A    between atoms: _305  and  _306
REMARK  120  A    between atoms: _305  and  _308
REMARK  121  A    between atoms: _308  and  _309
REMARK  122  A    between atoms: _314  and  _316
REMARK  123  A    between atoms: _316  and  _317
REMARK  124  A    between atoms: _316  and  _319
REMARK  125  A    between atoms: _319  and  _320
REMARK  126  A    between atoms: _325  and  _327
REMARK  127  A    between atoms: _327  and  _328
REMARK  128  A    between atoms: _327  and  _330
REMARK  129  A    between atoms: _330  and  _331
REMARK  130  A    between atoms: _334  and  _336
REMARK  131  A    between atoms: _336  and  _337
REMARK  132  A    between atoms: _336  and  _339
REMARK  133  A    between atoms: _342  and  _344
REMARK  134  A    between atoms: _344  and  _345
REMARK  135  A    between atoms: _344  and  _347
REMARK  136  A    between atoms: _347  and  _348
REMARK  137  A    between atoms: _351  and  _353
REMARK  138  A    between atoms: _353  and  _354
REMARK  139  A    between atoms: _353  and  _356
REMARK  140  A    between atoms: _356  and  _357
REMARK  141  A    between atoms: _357  and  _358
REMARK  142  A    between atoms: _361  and  _363
REMARK  143  A    between atoms: _363  and  _364
REMARK  144  A    between atoms: _367  and  _369
REMARK  145  A    between atoms: _369  and  _370
REMARK  146  A    between atoms: _369  and  _372
REMARK  147  A    between atoms: _372  and  _373
REMARK  148  A    between atoms: _376  and  _378
REMARK  149  A    between atoms: _378  and  _379
REMARK  150  A    between atoms: _378  and  _381
REMARK  151  A    between atoms: _381  and  _382
REMARK  152  A    between atoms: _382  and  _383
REMARK  153  A    between atoms: _386  and  _388
REMARK  154  A    between atoms: _388  and  _389
REMARK  155  A    between atoms: _388  and  _391
REMARK  156  A    between atoms: _391  and  _392
REMARK  157  A    between atoms: _397  and  _399
REMARK  158  A    between atoms: _399  and  _400
REMARK  159  A    between atoms: _402  and  _404
REMARK  160  A    between atoms: _404  and  _405
REMARK  161  A    between atoms: _404  and  _407
REMARK  162  A    between atoms: _410  and  _412
REMARK  163  A    between atoms: _412  and  _413
REMARK  164  A    between atoms: _416  and  _418
REMARK  165  A    between atoms: _418  and  _419
REMARK  166  A    between atoms: _418  and  _421
REMARK  167  A    between atoms: _421  and  _422
REMARK  168  A    between atoms: _427  and  _429
REMARK  169  A    between atoms: _429  and  _430
REMARK  170  A    between atoms: _429  and  _432
REMARK  171  A    between atoms: _432  and  _433
REMARK  172  A    between atoms: _433  and  _434
REMARK  173  A    between atoms: _434  and  _435
REMARK  174  A    between atoms: _435  and  _436
REMARK  175  A    between atoms: _440  and  _442
REMARK  176  A    between atoms: _442  and  _443
REMARK  177  A    between atoms: _442  and  _445
REMARK  178  A    between atoms: _445  and  _446
REMARK  179  A    between atoms: _449  and  _451
REMARK  180  A    between atoms: _451  and  _452
REMARK  181  A    between atoms: _451  and  _454
REMARK  182  A    between atoms: _454  and  _455
REMARK  183  A    between atoms: _460  and  _462
REMARK  184  A    between atoms: _462  and  _463
REMARK  185  A    between atoms: _465  and  _467
REMARK  186  A    between atoms: _467  and  _468
REMARK  187  A    between atoms: _467  and  _470
REMARK  188  A    between atoms: _470  and  _471
REMARK  189  A    between atoms: _471  and  _472
REMARK  190  A    between atoms: _472  and  _473
REMARK  191  A    between atoms: _473  and  _474
REMARK  192  A    between atoms: _478  and  _480
REMARK  193  A    between atoms: _480  and  _481
REMARK  194  A    between atoms: _480  and  _483
REMARK  195  A    between atoms: _483  and  _484
REMARK  196  A    between atoms: _484  and  _485
REMARK  197  A    between atoms: _485  and  _486
REMARK  198  A    between atoms: _495  and  _497
REMARK  199  A    between atoms: _497  and  _498
REMARK  200  A    between atoms: _497  and  _500
REMARK  201  A    between atoms: _500  and  _501
REMARK  202  A    between atoms: _506  and  _507
REMARK  203  A    between atoms: _509  and  _511
REMARK  204  A    between atoms: _511  and  _512
REMARK  205  A    between atoms: _511  and  _514
REMARK  206  A    between atoms: _514  and  _515
REMARK  207  A    between atoms: _515  and  _516
REMARK  208  A    between atoms: _516  and  _517
REMARK  209  A    between atoms: _517  and  _518
REMARK  210  A    between atoms: _522  and  _524
REMARK  211  A    between atoms: _524  and  _525
REMARK  212  A    between atoms: _524  and  _527
REMARK  213  A    between atoms: _527  and  _528
REMARK  214  A    between atoms: _530  and  _532
REMARK  215  A    between atoms: _532  and  _533
REMARK  216  A    between atoms: _532  and  _535
REMARK  217  A    between atoms: _535  and  _536
REMARK  218  A    between atoms: _539  and  _541
REMARK  219  A    between atoms: _541  and  _542
REMARK  220  A    between atoms: _541  and  _544
REMARK  221  A    between atoms: _544  and  _545
REMARK  222  A    between atoms: _545  and  _546
REMARK  223  A    between atoms: _549  and  _551
REMARK  224  A    between atoms: _551  and  _552
REMARK  225  A    between atoms: _555  and  _557
REMARK  226  A    between atoms: _557  and  _558
REMARK  227  A    between atoms: _557  and  _560
REMARK  228  A    between atoms: _560  and  _561
REMARK  229  A    between atoms: _563  and  _565
REMARK  230  A    between atoms: _565  and  _566
REMARK  231  A    between atoms: _568  and  _570
REMARK  232  A    between atoms: _570  and  _571
REMARK  233  A    between atoms: _570  and  _573
REMARK  234  A    between atoms: _573  and  _574
REMARK  235  A    between atoms: _577  and  _579
REMARK  236  A    between atoms: _579  and  _580
REMARK  237  A    between atoms: _582  and  _584
REMARK  238  A    between atoms: _584  and  _585
REMARK  239  A    between atoms: _584  and  _587
REMARK  240  A    between atoms: _587  and  _588
REMARK  241  A    between atoms: _593  and  _595
REMARK  242  A    between atoms: _595  and  _596
REMARK  243  A    between atoms: _595  and  _598
REMARK  244  A    between atoms: _598  and  _599
REMARK  245  A    between atoms: _599  and  _600
REMARK  246  A    between atoms: _607  and  _608
REMARK  247  A    between atoms: _608  and  _624
REMARK  248  A    between atoms: _609  and  _611
REMARK  249  A    between atoms: _611  and  _612
REMARK  250  A    between atoms: _612  and  _613
REMARK  251  A    between atoms: _617  and  _619
REMARK  252  A    between atoms: _619  and  _620
REMARK  253  A    between atoms: _619  and  _627
REMARK  254  A    between atoms: _620  and  _621
REMARK  255  A    between atoms: _621  and  _622
REMARK  256  A    between atoms: _622  and  _623
REMARK  257  A    between atoms: _623  and  _624
REMARK  258  A    between atoms: _629  and  _631
REMARK  259  A    between atoms: _631  and  _632
REMARK  260  A    between atoms: _631  and  _634
REMARK  261  A    between atoms: _634  and  _635
REMARK  262  A    between atoms: _638  and  _640
REMARK  263  A    between atoms: _640  and  _641
REMARK  264  A    between atoms: _643  and  _645
REMARK  265  A    between atoms: _645  and  _646
REMARK  266  A    between atoms: _649  and  _651
REMARK  267  A    between atoms: _651  and  _652
REMARK  268  A    between atoms: _651  and  _654
REMARK  269  A    between atoms: _654  and  _655
REMARK  270  A    between atoms: _660  and  _661
REMARK                            x       y       z     vdW  Elec       q    Type
REMARK                         _______ _______ _______ _____ _____    ______ ____
ROOT
ATOM      1  O   HOH     1      30.157  23.176  18.547  0.00  0.00    +0.000 OA
ENDROOT
TORSDOF 0
REMARK  Name = ../refined-set-2016/2qrm/2qrm_pocket.pdb
REMARK  270 active torsions:
REMARK  status: ('A' for Active; 'I' for Inactive)
REMARK    1  A    between atoms: _1  and  _3
REMARK    2  A    between atoms: _3  and  _4
REMARK    3  A    between atoms: _3  and  _6
REMARK    4  A    between atoms: _6  and  _7
REMARK    5  A    between atoms: _12  and  _13
REMARK    6  A    between atoms: _15  and  _17
REMARK    7  A    between atoms: _17  and  _18
REMARK    8  A    between atoms: _17  and  _20
REMARK    9  A    between atoms: _20  and  _21
REMARK   10  A    between atoms: _24  and  _26
REMARK   11  A    between atoms: _26  and  _27
REMARK   12  A    between atoms: _26  and  _29
REMARK   13  A    between atoms: _29  and  _30
REMARK   14  A    between atoms: _30  and  _31
REMARK   15  A    between atoms: _34  and  _36
REMARK   16  A    between atoms: _36  and  _37
REMARK   17  A    between atoms: _39  and  _41
REMARK   18  A    between atoms: _41  and  _42
REMARK   19  A    between atoms: _41  and  _44
REMARK   20  A    between atoms: _44  and  _45
REMARK   21  A    between atoms: _50  and  _52
REMARK   22  A    between atoms: _52  and  _53
REMARK   23  A    between atoms: _55  and  _57
REMARK   24  A    between atoms: _57  and  _58
REMARK   25  A    between atoms: _60  and  _62
REMARK   26  A    between atoms: _62  and  _63
REMARK   27  A    between atoms: _62  and  _65
REMARK   28  A    between atoms: _65  and  _66
REMARK   29  A    between atoms: _69  and  _71
REMARK   30  A    between atoms: _71  and  _72
REMARK   31  A    between atoms: _74  and  _76
REMARK   32  A    between atoms: _76  and  _77
REMARK   33  A    between atoms: _76  and  _79
REMARK   34  A    between atoms: _79  and  _80
REMARK   35  A    between atoms: _80  and  _81
REMARK   36  A    between atoms: _81  and  _82
REMARK   37  A    between atoms: _91  and  _93
REMARK   38  A    between atoms: _93  and  _94
REMARK   39  A    between atoms: _93  and  _96
REMARK   40  A    between atoms: _96  and  _97
REMARK   41  A    between atoms: _100  and  _102
REMARK   42  A    between atoms: _102  and  _103
REMARK   43  A    between atoms: _106  and  _108
REMARK   44  A    between atoms: _108  and  _109
REMARK   45  A    between atoms: _108  and  _111
REMARK   46  A    between atoms: _111  and  _112
REMARK   47  A    between atoms: _118  and  _120
REMARK   48  A    between atoms: _120  and  _121
REMARK   49  A    between atoms: _120  and  _123
REMARK   50  A    between atoms: _123  and  _124
REMARK   51  A    between atoms: _129  and  _130
REMARK   52  A    between atoms: _132  and  _134
REMARK   53  A    between atoms: _134  and  _135
REMARK   54  A    between atoms: _134  and  _137
REMARK   55  A    between atoms: _137  and  _138
REMARK   56  A    between atoms: _141  and  _143
REMARK   57  A    between atoms: _143  and  _144
REMARK   58  A    between atoms: _143  and  _146
REMARK   59  A    between atoms: _146  and  _147
REMARK   60  A    between atoms: _152  and  _153
REMARK   61  A    between atoms: _156  and  _157
REMARK   62  A    between atoms: _162  and  _164
REMARK   63  A    between atoms: _164  and  _165
REMARK   64  A    between atoms: _164  and  _167
REMARK   65  A    between atoms: _167  and  _168
REMARK   66  A    between atoms: _173  and  _175
REMARK   67  A    between atoms: _175  and  _176
REMARK   68  A    between atoms: _175  and  _178
REMARK   69  A    between atoms: _178  and  _179
REMARK   70  A    between atoms: _182  and  _184
REMARK   71  A    between atoms: _184  and  _185
REMARK   72  A    between atoms: _184  and  _187
REMARK   73  A    between atoms: _187  and  _188
REMARK   74  A    between atoms: _193  and  _195
REMARK   75  A    between atoms: _195  and  _196
REMARK   76  A    between atoms: _195  and  _198
REMARK   77  A    between atoms: _198  and  _199
REMARK   78  A    between atoms: _205  and  _207
REMARK   79  A    between atoms: _207  and  _208
REMARK   80  A    between atoms: _207  and  _210
REMARK   81  A    between atoms: _210  and  _211
REMARK   82  A    between atoms: _217  and  _219
REMARK   83  A    between atoms: _219  and  _220
REMARK   84  A    between atoms: _219  and  _222
REMARK   85  A    between atoms: _222  and  _223
REMARK   86  A    between atoms: _223  and  _224
REMARK   87  A    between atoms: _227  and  _229
REMARK   88  A    between atoms: _229  and  _230
REMARK   89  A    between atoms: _229  and  _232
REMARK   90  A    between atoms: _232  and  _233
REMARK   91  A    between atoms: _233  and  _234
REMARK   92  A    between atoms: _234  and  _235
REMARK   93  A    between atoms: _244  and  _246
REMARK   94  A    between atoms: _246  and  _247
REMARK   95  A    between atoms: _246  and  _249
REMARK   96  A    between atoms: _249  and  _250
REMARK   97  A    between atoms: _250  and  _251
REMARK   98  A    between atoms: _254  and  _256
REMARK   99  A    between atoms: _256  and  _257
REMARK  100  A    between atoms: _256  and  _259
REMARK  101  A    between atoms: _259  and  _260
REMARK  102  A    between atoms: _265  and  _267
REMARK  103  A    between atoms: _267  and  _268
REMARK  104  A    between atoms: _267  and  _270
REMARK  105  A    between atoms: _270  and  _271
REMARK  106  A    between atoms: _274  and  _276
REMARK  107  A    between atoms: _276  and  _277
REMARK  108  A    between atoms: _276  and  _279
REMARK  109  A    between atoms: _279  and  _280
REMARK  110  A    between atoms: _283  and  _285
REMARK  111  A    between atoms: _285  and  _286
REMARK  112  A    between atoms: _285  and  _288
REMARK  113  A    between atoms: _288  and  _289
REMARK  114  A    between atoms: _294  and  _296
REMARK  115  A    between atoms: _296  and  _297
REMARK  116  A    between atoms: _296  and  _299
REMARK  117  A    between atoms: _299  and  _300
REMARK  118  A    between atoms: _303  and  _305
REMARK  119  A    between atoms: _305  and  _306
REMARK  120  A    between atoms: _305  and  _308
REMARK  121  A    between atoms: _308  and  _309
REMARK  122  A    between atoms: _314  and  _316
REMARK  123  A    between atoms: _316  and  _317
REMARK  124  A    between atoms: _316  and  _319
REMARK  125  A    between atoms: _319  and  _320
REMARK  126  A    between atoms: _325  and  _327
REMARK  127  A    between atoms: _327  and  _328
REMARK  128  A    between atoms: _327  and  _330
REMARK  129  A    between atoms: _330  and  _331
REMARK  130  A    between atoms: _334  and  _336
REMARK  131  A    between atoms: _336  and  _337
REMARK  132  A    between atoms: _336  and  _339
REMARK  133  A    between atoms: _342  and  _344
REMARK  134  A    between atoms: _344  and  _345
REMARK  135  A    between atoms: _344  and  _347
REMARK  136  A    between atoms: _347  and  _348
REMARK  137  A    between atoms: _351  and  _353
REMARK  138  A    between atoms: _353  and  _354
REMARK  139  A    between atoms: _353  and  _356
REMARK  140  A    between atoms: _356  and  _357
REMARK  141  A    between atoms: _357  and  _358
REMARK  142  A    between atoms: _361  and  _363
REMARK  143  A    between atoms: _363  and  _364
REMARK  144  A    between atoms: _367  and  _369
REMARK  145  A    between atoms: _369  and  _370
REMARK  146  A    between atoms: _369  and  _372
REMARK  147  A    between atoms: _372  and  _373
REMARK  148  A    between atoms: _376  and  _378
REMARK  149  A    between atoms: _378  and  _379
REMARK  150  A    between atoms: _378  and  _381
REMARK  151  A    between atoms: _381  and  _382
REMARK  152  A    between atoms: _382  and  _383
REMARK  153  A    between atoms: _386  and  _388
REMARK  154  A    between atoms: _388  and  _389
REMARK  155  A    between atoms: _388  and  _391
REMARK  156  A    between atoms: _391  and  _392
REMARK  157  A    between atoms: _397  and  _399
REMARK  158  A    between atoms: _399  and  _400
REMARK  159  A    between atoms: _402  and  _404
REMARK  160  A    between atoms: _404  and  _405
REMARK  161  A    between atoms: _404  and  _407
REMARK  162  A    between atoms: _410  and  _412
REMARK  163  A    between atoms: _412  and  _413
REMARK  164  A    between atoms: _416  and  _418
REMARK  165  A    between atoms: _418  and  _419
REMARK  166  A    between atoms: _418  and  _421
REMARK  167  A    between atoms: _421  and  _422
REMARK  168  A    between atoms: _427  and  _429
REMARK  169  A    between atoms: _429  and  _430
REMARK  170  A    between atoms: _429  and  _432
REMARK  171  A    between atoms: _432  and  _433
REMARK  172  A    between atoms: _433  and  _434
REMARK  173  A    between atoms: _434  and  _435
REMARK  174  A    between atoms: _435  and  _436
REMARK  175  A    between atoms: _440  and  _442
REMARK  176  A    between atoms: _442  and  _443
REMARK  177  A    between atoms: _442  and  _445
REMARK  178  A    between atoms: _445  and  _446
REMARK  179  A    between atoms: _449  and  _451
REMARK  180  A    between atoms: _451  and  _452
REMARK  181  A    between atoms: _451  and  _454
REMARK  182  A    between atoms: _454  and  _455
REMARK  183  A    between atoms: _460  and  _462
REMARK  184  A    between atoms: _462  and  _463
REMARK  185  A    between atoms: _465  and  _467
REMARK  186  A    between atoms: _467  and  _468
REMARK  187  A    between atoms: _467  and  _470
REMARK  188  A    between atoms: _470  and  _471
REMARK  189  A    between atoms: _471  and  _472
REMARK  190  A    between atoms: _472  and  _473
REMARK  191  A    between atoms: _473  and  _474
REMARK  192  A    between atoms: _478  and  _480
REMARK  193  A    between atoms: _480  and  _481
REMARK  194  A    between atoms: _480  and  _483
REMARK  195  A    between atoms: _483  and  _484
REMARK  196  A    between atoms: _484  and  _485
REMARK  197  A    between atoms: _485  and  _486
REMARK  198  A    between atoms: _495  and  _497
REMARK  199  A    between atoms: _497  and  _498
REMARK  200  A    between atoms: _497  and  _500
REMARK  201  A    between atoms: _500  and  _501
REMARK  202  A    between atoms: _506  and  _507
REMARK  203  A    between atoms: _509  and  _511
REMARK  204  A    between atoms: _511  and  _512
REMARK  205  A    between atoms: _511  and  _514
REMARK  206  A    between atoms: _514  and  _515
REMARK  207  A    between atoms: _515  and  _516
REMARK  208  A    between atoms: _516  and  _517
REMARK  209  A    between atoms: _517  and  _518
REMARK  210  A    between atoms: _522  and  _524
REMARK  211  A    between atoms: _524  and  _525
REMARK  212  A    between atoms: _524  and  _527
REMARK  213  A    between atoms: _527  and  _528
REMARK  214  A    between atoms: _530  and  _532
REMARK  215  A    between atoms: _532  and  _533
REMARK  216  A    between atoms: _532  and  _535
REMARK  217  A    between atoms: _535  and  _536
REMARK  218  A    between atoms: _539  and  _541
REMARK  219  A    between atoms: _541  and  _542
REMARK  220  A    between atoms: _541  and  _544
REMARK  221  A    between atoms: _544  and  _545
REMARK  222  A    between atoms: _545  and  _546
REMARK  223  A    between atoms: _549  and  _551
REMARK  224  A    between atoms: _551  and  _552
REMARK  225  A    between atoms: _555  and  _557
REMARK  226  A    between atoms: _557  and  _558
REMARK  227  A    between atoms: _557  and  _560
REMARK  228  A    between atoms: _560  and  _561
REMARK  229  A    between atoms: _563  and  _565
REMARK  230  A    between atoms: _565  and  _566
REMARK  231  A    between atoms: _568  and  _570
REMARK  232  A    between atoms: _570  and  _571
REMARK  233  A    between atoms: _570  and  _573
REMARK  234  A    between atoms: _573  and  _574
REMARK  235  A    between atoms: _577  and  _579
REMARK  236  A    between atoms: _579  and  _580
REMARK  237  A    between atoms: _582  and  _584
REMARK  238  A    between atoms: _584  and  _585
REMARK  239  A    between atoms: _584  and  _587
REMARK  240  A    between atoms: _587  and  _588
REMARK  241  A    between atoms: _593  and  _595
REMARK  242  A    between atoms: _595  and  _596
REMARK  243  A    between atoms: _595  and  _598
REMARK  244  A    between atoms: _598  and  _599
REMARK  245  A    between atoms: _599  and  _600
REMARK  246  A    between atoms: _607  and  _608
REMARK  247  A    between atoms: _608  and  _624
REMARK  248  A    between atoms: _609  and  _611
REMARK  249  A    between atoms: _611  and  _612
REMARK  250  A    between atoms: _612  and  _613
REMARK  251  A    between atoms: _617  and  _619
REMARK  252  A    between atoms: _619  and  _620
REMARK  253  A    between atoms: _619  and  _627
REMARK  254  A    between atoms: _620  and  _621
REMARK  255  A    between atoms: _621  and  _622
REMARK  256  A    between atoms: _622  and  _623
REMARK  257  A    between atoms: _623  and  _624
REMARK  258  A    between atoms: _629  and  _631
REMARK  259  A    between atoms: _631  and  _632
REMARK  260  A    between atoms: _631  and  _634
REMARK  261  A    between atoms: _634  and  _635
REMARK  262  A    between atoms: _638  and  _640
REMARK  263  A    between atoms: _640  and  _641
REMARK  264  A    between atoms: _643  and  _645
REMARK  265  A    between atoms: _645  and  _646
REMARK  266  A    between atoms: _649  and  _651
REMARK  267  A    between atoms: _651  and  _652
REMARK  268  A    between atoms: _651  and  _654
REMARK  269  A    between atoms: _654  and  _655
REMARK  270  A    between atoms: _660  and  _661
REMARK                            x       y       z     vdW  Elec       q    Type
REMARK                         _______ _______ _______ _____ _____    ______ ____
ROOT
ATOM      1  O   HOH     1      27.057  19.385  28.983  0.00  0.00    +0.000 OA
ENDROOT
TORSDOF 0
REMARK  Name = ../refined-set-2016/2qrm/2qrm_pocket.pdb
REMARK  270 active torsions:
REMARK  status: ('A' for Active; 'I' for Inactive)
REMARK    1  A    between atoms: _1  and  _3
REMARK    2  A    between atoms: _3  and  _4
REMARK    3  A    between atoms: _3  and  _6
REMARK    4  A    between atoms: _6  and  _7
REMARK    5  A    between atoms: _12  and  _13
REMARK    6  A    between atoms: _15  and  _17
REMARK    7  A    between atoms: _17  and  _18
REMARK    8  A    between atoms: _17  and  _20
REMARK    9  A    between atoms: _20  and  _21
REMARK   10  A    between atoms: _24  and  _26
REMARK   11  A    between atoms: _26  and  _27
REMARK   12  A    between atoms: _26  and  _29
REMARK   13  A    between atoms: _29  and  _30
REMARK   14  A    between atoms: _30  and  _31
REMARK   15  A    between atoms: _34  and  _36
REMARK   16  A    between atoms: _36  and  _37
REMARK   17  A    between atoms: _39  and  _41
REMARK   18  A    between atoms: _41  and  _42
REMARK   19  A    between atoms: _41  and  _44
REMARK   20  A    between atoms: _44  and  _45
REMARK   21  A    between atoms: _50  and  _52
REMARK   22  A    between atoms: _52  and  _53
REMARK   23  A    between atoms: _55  and  _57
REMARK   24  A    between atoms: _57  and  _58
REMARK   25  A    between atoms: _60  and  _62
REMARK   26  A    between atoms: _62  and  _63
REMARK   27  A    between atoms: _62  and  _65
REMARK   28  A    between atoms: _65  and  _66
REMARK   29  A    between atoms: _69  and  _71
REMARK   30  A    between atoms: _71  and  _72
REMARK   31  A    between atoms: _74  and  _76
REMARK   32  A    between atoms: _76  and  _77
REMARK   33  A    between atoms: _76  and  _79
REMARK   34  A    between atoms: _79  and  _80
REMARK   35  A    between atoms: _80  and  _81
REMARK   36  A    between atoms: _81  and  _82
REMARK   37  A    between atoms: _91  and  _93
REMARK   38  A    between atoms: _93  and  _94
REMARK   39  A    between atoms: _93  and  _96
REMARK   40  A    between atoms: _96  and  _97
REMARK   41  A    between atoms: _100  and  _102
REMARK   42  A    between atoms: _102  and  _103
REMARK   43  A    between atoms: _106  and  _108
REMARK   44  A    between atoms: _108  and  _109
REMARK   45  A    between atoms: _108  and  _111
REMARK   46  A    between atoms: _111  and  _112
REMARK   47  A    between atoms: _118  and  _120
REMARK   48  A    between atoms: _120  and  _121
REMARK   49  A    between atoms: _120  and  _123
REMARK   50  A    between atoms: _123  and  _124
REMARK   51  A    between atoms: _129  and  _130
REMARK   52  A    between atoms: _132  and  _134
REMARK   53  A    between atoms: _134  and  _135
REMARK   54  A    between atoms: _134  and  _137
REMARK   55  A    between atoms: _137  and  _138
REMARK   56  A    between atoms: _141  and  _143
REMARK   57  A    between atoms: _143  and  _144
REMARK   58  A    between atoms: _143  and  _146
REMARK   59  A    between atoms: _146  and  _147
REMARK   60  A    between atoms: _152  and  _153
REMARK   61  A    between atoms: _156  and  _157
REMARK   62  A    between atoms: _162  and  _164
REMARK   63  A    between atoms: _164  and  _165
REMARK   64  A    between atoms: _164  and  _167
REMARK   65  A    between atoms: _167  and  _168
REMARK   66  A    between atoms: _173  and  _175
REMARK   67  A    between atoms: _175  and  _176
REMARK   68  A    between atoms: _175  and  _178
REMARK   69  A    between atoms: _178  and  _179
REMARK   70  A    between atoms: _182  and  _184
REMARK   71  A    between atoms: _184  and  _185
REMARK   72  A    between atoms: _184  and  _187
REMARK   73  A    between atoms: _187  and  _188
REMARK   74  A    between atoms: _193  and  _195
REMARK   75  A    between atoms: _195  and  _196
REMARK   76  A    between atoms: _195  and  _198
REMARK   77  A    between atoms: _198  and  _199
REMARK   78  A    between atoms: _205  and  _207
REMARK   79  A    between atoms: _207  and  _208
REMARK   80  A    between atoms: _207  and  _210
REMARK   81  A    between atoms: _210  and  _211
REMARK   82  A    between atoms: _217  and  _219
REMARK   83  A    between atoms: _219  and  _220
REMARK   84  A    between atoms: _219  and  _222
REMARK   85  A    between atoms: _222  and  _223
REMARK   86  A    between atoms: _223  and  _224
REMARK   87  A    between atoms: _227  and  _229
REMARK   88  A    between atoms: _229  and  _230
REMARK   89  A    between atoms: _229  and  _232
REMARK   90  A    between atoms: _232  and  _233
REMARK   91  A    between atoms: _233  and  _234
REMARK   92  A    between atoms: _234  and  _235
REMARK   93  A    between atoms: _244  and  _246
REMARK   94  A    between atoms: _246  and  _247
REMARK   95  A    between atoms: _246  and  _249
REMARK   96  A    between atoms: _249  and  _250
REMARK   97  A    between atoms: _250  and  _251
REMARK   98  A    between atoms: _254  and  _256
REMARK   99  A    between atoms: _256  and  _257
REMARK  100  A    between atoms: _256  and  _259
REMARK  101  A    between atoms: _259  and  _260
REMARK  102  A    between atoms: _265  and  _267
REMARK  103  A    between atoms: _267  and  _268
REMARK  104  A    between atoms: _267  and  _270
REMARK  105  A    between atoms: _270  and  _271
REMARK  106  A    between atoms: _274  and  _276
REMARK  107  A    between atoms: _276  and  _277
REMARK  108  A    between atoms: _276  and  _279
REMARK  109  A    between atoms: _279  and  _280
REMARK  110  A    between atoms: _283  and  _285
REMARK  111  A    between atoms: _285  and  _286
REMARK  112  A    between atoms: _285  and  _288
REMARK  113  A    between atoms: _288  and  _289
REMARK  114  A    between atoms: _294  and  _296
REMARK  115  A    between atoms: _296  and  _297
REMARK  116  A    between atoms: _296  and  _299
REMARK  117  A    between atoms: _299  and  _300
REMARK  118  A    between atoms: _303  and  _305
REMARK  119  A    between atoms: _305  and  _306
REMARK  120  A    between atoms: _305  and  _308
REMARK  121  A    between atoms: _308  and  _309
REMARK  122  A    between atoms: _314  and  _316
REMARK  123  A    between atoms: _316  and  _317
REMARK  124  A    between atoms: _316  and  _319
REMARK  125  A    between atoms: _319  and  _320
REMARK  126  A    between atoms: _325  and  _327
REMARK  127  A    between atoms: _327  and  _328
REMARK  128  A    between atoms: _327  and  _330
REMARK  129  A    between atoms: _330  and  _331
REMARK  130  A    between atoms: _334  and  _336
REMARK  131  A    between atoms: _336  and  _337
REMARK  132  A    between atoms: _336  and  _339
REMARK  133  A    between atoms: _342  and  _344
REMARK  134  A    between atoms: _344  and  _345
REMARK  135  A    between atoms: _344  and  _347
REMARK  136  A    between atoms: _347  and  _348
REMARK  137  A    between atoms: _351  and  _353
REMARK  138  A    between atoms: _353  and  _354
REMARK  139  A    between atoms: _353  and  _356
REMARK  140  A    between atoms: _356  and  _357
REMARK  141  A    between atoms: _357  and  _358
REMARK  142  A    between atoms: _361  and  _363
REMARK  143  A    between atoms: _363  and  _364
REMARK  144  A    between atoms: _367  and  _369
REMARK  145  A    between atoms: _369  and  _370
REMARK  146  A    between atoms: _369  and  _372
REMARK  147  A    between atoms: _372  and  _373
REMARK  148  A    between atoms: _376  and  _378
REMARK  149  A    between atoms: _378  and  _379
REMARK  150  A    between atoms: _378  and  _381
REMARK  151  A    between atoms: _381  and  _382
REMARK  152  A    between atoms: _382  and  _383
REMARK  153  A    between atoms: _386  and  _388
REMARK  154  A    between atoms: _388  and  _389
REMARK  155  A    between atoms: _388  and  _391
REMARK  156  A    between atoms: _391  and  _392
REMARK  157  A    between atoms: _397  and  _399
REMARK  158  A    between atoms: _399  and  _400
REMARK  159  A    between atoms: _402  and  _404
REMARK  160  A    between atoms: _404  and  _405
REMARK  161  A    between atoms: _404  and  _407
REMARK  162  A    between atoms: _410  and  _412
REMARK  163  A    between atoms: _412  and  _413
REMARK  164  A    between atoms: _416  and  _418
REMARK  165  A    between atoms: _418  and  _419
REMARK  166  A    between atoms: _418  and  _421
REMARK  167  A    between atoms: _421  and  _422
REMARK  168  A    between atoms: _427  and  _429
REMARK  169  A    between atoms: _429  and  _430
REMARK  170  A    between atoms: _429  and  _432
REMARK  171  A    between atoms: _432  and  _433
REMARK  172  A    between atoms: _433  and  _434
REMARK  173  A    between atoms: _434  and  _435
REMARK  174  A    between atoms: _435  and  _436
REMARK  175  A    between atoms: _440  and  _442
REMARK  176  A    between atoms: _442  and  _443
REMARK  177  A    between atoms: _442  and  _445
REMARK  178  A    between atoms: _445  and  _446
REMARK  179  A    between atoms: _449  and  _451
REMARK  180  A    between atoms: _451  and  _452
REMARK  181  A    between atoms: _451  and  _454
REMARK  182  A    between atoms: _454  and  _455
REMARK  183  A    between atoms: _460  and  _462
REMARK  184  A    between atoms: _462  and  _463
REMARK  185  A    between atoms: _465  and  _467
REMARK  186  A    between atoms: _467  and  _468
REMARK  187  A    between atoms: _467  and  _470
REMARK  188  A    between atoms: _470  and  _471
REMARK  189  A    between atoms: _471  and  _472
REMARK  190  A    between atoms: _472  and  _473
REMARK  191  A    between atoms: _473  and  _474
REMARK  192  A    between atoms: _478  and  _480
REMARK  193  A    between atoms: _480  and  _481
REMARK  194  A    between atoms: _480  and  _483
REMARK  195  A    between atoms: _483  and  _484
REMARK  196  A    between atoms: _484  and  _485
REMARK  197  A    between atoms: _485  and  _486
REMARK  198  A    between atoms: _495  and  _497
REMARK  199  A    between atoms: _497  and  _498
REMARK  200  A    between atoms: _497  and  _500
REMARK  201  A    between atoms: _500  and  _501
REMARK  202  A    between atoms: _506  and  _507
REMARK  203  A    between atoms: _509  and  _511
REMARK  204  A    between atoms: _511  and  _512
REMARK  205  A    between atoms: _511  and  _514
REMARK  206  A    between atoms: _514  and  _515
REMARK  207  A    between atoms: _515  and  _516
REMARK  208  A    between atoms: _516  and  _517
REMARK  209  A    between atoms: _517  and  _518
REMARK  210  A    between atoms: _522  and  _524
REMARK  211  A    between atoms: _524  and  _525
REMARK  212  A    between atoms: _524  and  _527
REMARK  213  A    between atoms: _527  and  _528
REMARK  214  A    between atoms: _530  and  _532
REMARK  215  A    between atoms: _532  and  _533
REMARK  216  A    between atoms: _532  and  _535
REMARK  217  A    between atoms: _535  and  _536
REMARK  218  A    between atoms: _539  and  _541
REMARK  219  A    between atoms: _541  and  _542
REMARK  220  A    between atoms: _541  and  _544
REMARK  221  A    between atoms: _544  and  _545
REMARK  222  A    between atoms: _545  and  _546
REMARK  223  A    between atoms: _549  and  _551
REMARK  224  A    between atoms: _551  and  _552
REMARK  225  A    between atoms: _555  and  _557
REMARK  226  A    between atoms: _557  and  _558
REMARK  227  A    between atoms: _557  and  _560
REMARK  228  A    between atoms: _560  and  _561
REMARK  229  A    between atoms: _563  and  _565
REMARK  230  A    between atoms: _565  and  _566
REMARK  231  A    between atoms: _568  and  _570
REMARK  232  A    between atoms: _570  and  _571
REMARK  233  A    between atoms: _570  and  _573
REMARK  234  A    between atoms: _573  and  _574
REMARK  235  A    between atoms: _577  and  _579
REMARK  236  A    between atoms: _579  and  _580
REMARK  237  A    between atoms: _582  and  _584
REMARK  238  A    between atoms: _584  and  _585
REMARK  239  A    between atoms: _584  and  _587
REMARK  240  A    between atoms: _587  and  _588
REMARK  241  A    between atoms: _593  and  _595
REMARK  242  A    between atoms: _595  and  _596
REMARK  243  A    between atoms: _595  and  _598
REMARK  244  A    between atoms: _598  and  _599
REMARK  245  A    between atoms: _599  and  _600
REMARK  246  A    between atoms: _607  and  _608
REMARK  247  A    between atoms: _608  and  _624
REMARK  248  A    between atoms: _609  and  _611
REMARK  249  A    between atoms: _611  and  _612
REMARK  250  A    between atoms: _612  and  _613
REMARK  251  A    between atoms: _617  and  _619
REMARK  252  A    between atoms: _619  and  _620
REMARK  253  A    between atoms: _619  and  _627
REMARK  254  A    between atoms: _620  and  _621
REMARK  255  A    between atoms: _621  and  _622
REMARK  256  A    between atoms: _622  and  _623
REMARK  257  A    between atoms: _623  and  _624
REMARK  258  A    between atoms: _629  and  _631
REMARK  259  A    between atoms: _631  and  _632
REMARK  260  A    between atoms: _631  and  _634
REMARK  261  A    between atoms: _634  and  _635
REMARK  262  A    between atoms: _638  and  _640
REMARK  263  A    between atoms: _640  and  _641
REMARK  264  A    between atoms: _643  and  _645
REMARK  265  A    between atoms: _645  and  _646
REMARK  266  A    between atoms: _649  and  _651
REMARK  267  A    between atoms: _651  and  _652
REMARK  268  A    between atoms: _651  and  _654
REMARK  269  A    between atoms: _654  and  _655
REMARK  270  A    between atoms: _660  and  _661
REMARK                            x       y       z     vdW  Elec       q    Type
REMARK                         _______ _______ _______ _____ _____    ______ ____
ROOT
ATOM      1  O   HOH     1      29.341  21.957  26.431  0.00  0.00    +0.000 OA
ENDROOT
TORSDOF 0
REMARK  Name = ../refined-set-2016/2qrm/2qrm_pocket.pdb
REMARK  270 active torsions:
REMARK  status: ('A' for Active; 'I' for Inactive)
REMARK    1  A    between atoms: _1  and  _3
REMARK    2  A    between atoms: _3  and  _4
REMARK    3  A    between atoms: _3  and  _6
REMARK    4  A    between atoms: _6  and  _7
REMARK    5  A    between atoms: _12  and  _13
REMARK    6  A    between atoms: _15  and  _17
REMARK    7  A    between atoms: _17  and  _18
REMARK    8  A    between atoms: _17  and  _20
REMARK    9  A    between atoms: _20  and  _21
REMARK   10  A    between atoms: _24  and  _26
REMARK   11  A    between atoms: _26  and  _27
REMARK   12  A    between atoms: _26  and  _29
REMARK   13  A    between atoms: _29  and  _30
REMARK   14  A    between atoms: _30  and  _31
REMARK   15  A    between atoms: _34  and  _36
REMARK   16  A    between atoms: _36  and  _37
REMARK   17  A    between atoms: _39  and  _41
REMARK   18  A    between atoms: _41  and  _42
REMARK   19  A    between atoms: _41  and  _44
REMARK   20  A    between atoms: _44  and  _45
REMARK   21  A    between atoms: _50  and  _52
REMARK   22  A    between atoms: _52  and  _53
REMARK   23  A    between atoms: _55  and  _57
REMARK   24  A    between atoms: _57  and  _58
REMARK   25  A    between atoms: _60  and  _62
REMARK   26  A    between atoms: _62  and  _63
REMARK   27  A    between atoms: _62  and  _65
REMARK   28  A    between atoms: _65  and  _66
REMARK   29  A    between atoms: _69  and  _71
REMARK   30  A    between atoms: _71  and  _72
REMARK   31  A    between atoms: _74  and  _76
REMARK   32  A    between atoms: _76  and  _77
REMARK   33  A    between atoms: _76  and  _79
REMARK   34  A    between atoms: _79  and  _80
REMARK   35  A    between atoms: _80  and  _81
REMARK   36  A    between atoms: _81  and  _82
REMARK   37  A    between atoms: _91  and  _93
REMARK   38  A    between atoms: _93  and  _94
REMARK   39  A    between atoms: _93  and  _96
REMARK   40  A    between atoms: _96  and  _97
REMARK   41  A    between atoms: _100  and  _102
REMARK   42  A    between atoms: _102  and  _103
REMARK   43  A    between atoms: _106  and  _108
REMARK   44  A    between atoms: _108  and  _109
REMARK   45  A    between atoms: _108  and  _111
REMARK   46  A    between atoms: _111  and  _112
REMARK   47  A    between atoms: _118  and  _120
REMARK   48  A    between atoms: _120  and  _121
REMARK   49  A    between atoms: _120  and  _123
REMARK   50  A    between atoms: _123  and  _124
REMARK   51  A    between atoms: _129  and  _130
REMARK   52  A    between atoms: _132  and  _134
REMARK   53  A    between atoms: _134  and  _135
REMARK   54  A    between atoms: _134  and  _137
REMARK   55  A    between atoms: _137  and  _138
REMARK   56  A    between atoms: _141  and  _143
REMARK   57  A    between atoms: _143  and  _144
REMARK   58  A    between atoms: _143  and  _146
REMARK   59  A    between atoms: _146  and  _147
REMARK   60  A    between atoms: _152  and  _153
REMARK   61  A    between atoms: _156  and  _157
REMARK   62  A    between atoms: _162  and  _164
REMARK   63  A    between atoms: _164  and  _165
REMARK   64  A    between atoms: _164  and  _167
REMARK   65  A    between atoms: _167  and  _168
REMARK   66  A    between atoms: _173  and  _175
REMARK   67  A    between atoms: _175  and  _176
REMARK   68  A    between atoms: _175  and  _178
REMARK   69  A    between atoms: _178  and  _179
REMARK   70  A    between atoms: _182  and  _184
REMARK   71  A    between atoms: _184  and  _185
REMARK   72  A    between atoms: _184  and  _187
REMARK   73  A    between atoms: _187  and  _188
REMARK   74  A    between atoms: _193  and  _195
REMARK   75  A    between atoms: _195  and  _196
REMARK   76  A    between atoms: _195  and  _198
REMARK   77  A    between atoms: _198  and  _199
REMARK   78  A    between atoms: _205  and  _207
REMARK   79  A    between atoms: _207  and  _208
REMARK   80  A    between atoms: _207  and  _210
REMARK   81  A    between atoms: _210  and  _211
REMARK   82  A    between atoms: _217  and  _219
REMARK   83  A    between atoms: _219  and  _220
REMARK   84  A    between atoms: _219  and  _222
REMARK   85  A    between atoms: _222  and  _223
REMARK   86  A    between atoms: _223  and  _224
REMARK   87  A    between atoms: _227  and  _229
REMARK   88  A    between atoms: _229  and  _230
REMARK   89  A    between atoms: _229  and  _232
REMARK   90  A    between atoms: _232  and  _233
REMARK   91  A    between atoms: _233  and  _234
REMARK   92  A    between atoms: _234  and  _235
REMARK   93  A    between atoms: _244  and  _246
REMARK   94  A    between atoms: _246  and  _247
REMARK   95  A    between atoms: _246  and  _249
REMARK   96  A    between atoms: _249  and  _250
REMARK   97  A    between atoms: _250  and  _251
REMARK   98  A    between atoms: _254  and  _256
REMARK   99  A    between atoms: _256  and  _257
REMARK  100  A    between atoms: _256  and  _259
REMARK  101  A    between atoms: _259  and  _260
REMARK  102  A    between atoms: _265  and  _267
REMARK  103  A    between atoms: _267  and  _268
REMARK  104  A    between atoms: _267  and  _270
REMARK  105  A    between atoms: _270  and  _271
REMARK  106  A    between atoms: _274  and  _276
REMARK  107  A    between atoms: _276  and  _277
REMARK  108  A    between atoms: _276  and  _279
REMARK  109  A    between atoms: _279  and  _280
REMARK  110  A    between atoms: _283  and  _285
REMARK  111  A    between atoms: _285  and  _286
REMARK  112  A    between atoms: _285  and  _288
REMARK  113  A    between atoms: _288  and  _289
REMARK  114  A    between atoms: _294  and  _296
REMARK  115  A    between atoms: _296  and  _297
REMARK  116  A    between atoms: _296  and  _299
REMARK  117  A    between atoms: _299  and  _300
REMARK  118  A    between atoms: _303  and  _305
REMARK  119  A    between atoms: _305  and  _306
REMARK  120  A    between atoms: _305  and  _308
REMARK  121  A    between atoms: _308  and  _309
REMARK  122  A    between atoms: _314  and  _316
REMARK  123  A    between atoms: _316  and  _317
REMARK  124  A    between atoms: _316  and  _319
REMARK  125  A    between atoms: _319  and  _320
REMARK  126  A    between atoms: _325  and  _327
REMARK  127  A    between atoms: _327  and  _328
REMARK  128  A    between atoms: _327  and  _330
REMARK  129  A    between atoms: _330  and  _331
REMARK  130  A    between atoms: _334  and  _336
REMARK  131  A    between atoms: _336  and  _337
REMARK  132  A    between atoms: _336  and  _339
REMARK  133  A    between atoms: _342  and  _344
REMARK  134  A    between atoms: _344  and  _345
REMARK  135  A    between atoms: _344  and  _347
REMARK  136  A    between atoms: _347  and  _348
REMARK  137  A    between atoms: _351  and  _353
REMARK  138  A    between atoms: _353  and  _354
REMARK  139  A    between atoms: _353  and  _356
REMARK  140  A    between atoms: _356  and  _357
REMARK  141  A    between atoms: _357  and  _358
REMARK  142  A    between atoms: _361  and  _363
REMARK  143  A    between atoms: _363  and  _364
REMARK  144  A    between atoms: _367  and  _369
REMARK  145  A    between atoms: _369  and  _370
REMARK  146  A    between atoms: _369  and  _372
REMARK  147  A    between atoms: _372  and  _373
REMARK  148  A    between atoms: _376  and  _378
REMARK  149  A    between atoms: _378  and  _379
REMARK  150  A    between atoms: _378  and  _381
REMARK  151  A    between atoms: _381  and  _382
REMARK  152  A    between atoms: _382  and  _383
REMARK  153  A    between atoms: _386  and  _388
REMARK  154  A    between atoms: _388  and  _389
REMARK  155  A    between atoms: _388  and  _391
REMARK  156  A    between atoms: _391  and  _392
REMARK  157  A    between atoms: _397  and  _399
REMARK  158  A    between atoms: _399  and  _400
REMARK  159  A    between atoms: _402  and  _404
REMARK  160  A    between atoms: _404  and  _405
REMARK  161  A    between atoms: _404  and  _407
REMARK  162  A    between atoms: _410  and  _412
REMARK  163  A    between atoms: _412  and  _413
REMARK  164  A    between atoms: _416  and  _418
REMARK  165  A    between atoms: _418  and  _419
REMARK  166  A    between atoms: _418  and  _421
REMARK  167  A    between atoms: _421  and  _422
REMARK  168  A    between atoms: _427  and  _429
REMARK  169  A    between atoms: _429  and  _430
REMARK  170  A    between atoms: _429  and  _432
REMARK  171  A    between atoms: _432  and  _433
REMARK  172  A    between atoms: _433  and  _434
REMARK  173  A    between atoms: _434  and  _435
REMARK  174  A    between atoms: _435  and  _436
REMARK  175  A    between atoms: _440  and  _442
REMARK  176  A    between atoms: _442  and  _443
REMARK  177  A    between atoms: _442  and  _445
REMARK  178  A    between atoms: _445  and  _446
REMARK  179  A    between atoms: _449  and  _451
REMARK  180  A    between atoms: _451  and  _452
REMARK  181  A    between atoms: _451  and  _454
REMARK  182  A    between atoms: _454  and  _455
REMARK  183  A    between atoms: _460  and  _462
REMARK  184  A    between atoms: _462  and  _463
REMARK  185  A    between atoms: _465  and  _467
REMARK  186  A    between atoms: _467  and  _468
REMARK  187  A    between atoms: _467  and  _470
REMARK  188  A    between atoms: _470  and  _471
REMARK  189  A    between atoms: _471  and  _472
REMARK  190  A    between atoms: _472  and  _473
REMARK  191  A    between atoms: _473  and  _474
REMARK  192  A    between atoms: _478  and  _480
REMARK  193  A    between atoms: _480  and  _481
REMARK  194  A    between atoms: _480  and  _483
REMARK  195  A    between atoms: _483  and  _484
REMARK  196  A    between atoms: _484  and  _485
REMARK  197  A    between atoms: _485  and  _486
REMARK  198  A    between atoms: _495  and  _497
REMARK  199  A    between atoms: _497  and  _498
REMARK  200  A    between atoms: _497  and  _500
REMARK  201  A    between atoms: _500  and  _501
REMARK  202  A    between atoms: _506  and  _507
REMARK  203  A    between atoms: _509  and  _511
REMARK  204  A    between atoms: _511  and  _512
REMARK  205  A    between atoms: _511  and  _514
REMARK  206  A    between atoms: _514  and  _515
REMARK  207  A    between atoms: _515  and  _516
REMARK  208  A    between atoms: _516  and  _517
REMARK  209  A    between atoms: _517  and  _518
REMARK  210  A    between atoms: _522  and  _524
REMARK  211  A    between atoms: _524  and  _525
REMARK  212  A    between atoms: _524  and  _527
REMARK  213  A    between atoms: _527  and  _528
REMARK  214  A    between atoms: _530  and  _532
REMARK  215  A    between atoms: _532  and  _533
REMARK  216  A    between atoms: _532  and  _535
REMARK  217  A    between atoms: _535  and  _536
REMARK  218  A    between atoms: _539  and  _541
REMARK  219  A    between atoms: _541  and  _542
REMARK  220  A    between atoms: _541  and  _544
REMARK  221  A    between atoms: _544  and  _545
REMARK  222  A    between atoms: _545  and  _546
REMARK  223  A    between atoms: _549  and  _551
REMARK  224  A    between atoms: _551  and  _552
REMARK  225  A    between atoms: _555  and  _557
REMARK  226  A    between atoms: _557  and  _558
REMARK  227  A    between atoms: _557  and  _560
REMARK  228  A    between atoms: _560  and  _561
REMARK  229  A    between atoms: _563  and  _565
REMARK  230  A    between atoms: _565  and  _566
REMARK  231  A    between atoms: _568  and  _570
REMARK  232  A    between atoms: _570  and  _571
REMARK  233  A    between atoms: _570  and  _573
REMARK  234  A    between atoms: _573  and  _574
REMARK  235  A    between atoms: _577  and  _579
REMARK  236  A    between atoms: _579  and  _580
REMARK  237  A    between atoms: _582  and  _584
REMARK  238  A    between atoms: _584  and  _585
REMARK  239  A    between atoms: _584  and  _587
REMARK  240  A    between atoms: _587  and  _588
REMARK  241  A    between atoms: _593  and  _595
REMARK  242  A    between atoms: _595  and  _596
REMARK  243  A    between atoms: _595  and  _598
REMARK  244  A    between atoms: _598  and  _599
REMARK  245  A    between atoms: _599  and  _600
REMARK  246  A    between atoms: _607  and  _608
REMARK  247  A    between atoms: _608  and  _624
REMARK  248  A    between atoms: _609  and  _611
REMARK  249  A    between atoms: _611  and  _612
REMARK  250  A    between atoms: _612  and  _613
REMARK  251  A    between atoms: _617  and  _619
REMARK  252  A    between atoms: _619  and  _620
REMARK  253  A    between atoms: _619  and  _627
REMARK  254  A    between atoms: _620  and  _621
REMARK  255  A    between atoms: _621  and  _622
REMARK  256  A    between atoms: _622  and  _623
REMARK  257  A    between atoms: _623  and  _624
REMARK  258  A    between atoms: _629  and  _631
REMARK  259  A    between atoms: _631  and  _632
REMARK  260  A    between atoms: _631  and  _634
REMARK  261  A    between atoms: _634  and  _635
REMARK  262  A    between atoms: _638  and  _640
REMARK  263  A    between atoms: _640  and  _641
REMARK  264  A    between atoms: _643  and  _645
REMARK  265  A    between atoms: _645  and  _646
REMARK  266  A    between atoms: _649  and  _651
REMARK  267  A    between atoms: _651  and  _652
REMARK  268  A    between atoms: _651  and  _654
REMARK  269  A    between atoms: _654  and  _655
REMARK  270  A    between atoms: _660  and  _661
REMARK                            x       y       z     vdW  Elec       q    Type
REMARK                         _______ _______ _______ _____ _____    ______ ____
ROOT
ATOM      1  O   HOH     1      38.383  29.867  37.484  0.00  0.00    +0.000 OA
ENDROOT
TORSDOF 0
REMARK  Name = ../refined-set-2016/2qrm/2qrm_pocket.pdb
REMARK  270 active torsions:
REMARK  status: ('A' for Active; 'I' for Inactive)
REMARK    1  A    between atoms: _1  and  _3
REMARK    2  A    between atoms: _3  and  _4
REMARK    3  A    between atoms: _3  and  _6
REMARK    4  A    between atoms: _6  and  _7
REMARK    5  A    between atoms: _12  and  _13
REMARK    6  A    between atoms: _15  and  _17
REMARK    7  A    between atoms: _17  and  _18
REMARK    8  A    between atoms: _17  and  _20
REMARK    9  A    between atoms: _20  and  _21
REMARK   10  A    between atoms: _24  and  _26
REMARK   11  A    between atoms: _26  and  _27
REMARK   12  A    between atoms: _26  and  _29
REMARK   13  A    between atoms: _29  and  _30
REMARK   14  A    between atoms: _30  and  _31
REMARK   15  A    between atoms: _34  and  _36
REMARK   16  A    between atoms: _36  and  _37
REMARK   17  A    between atoms: _39  and  _41
REMARK   18  A    between atoms: _41  and  _42
REMARK   19  A    between atoms: _41  and  _44
REMARK   20  A    between atoms: _44  and  _45
REMARK   21  A    between atoms: _50  and  _52
REMARK   22  A    between atoms: _52  and  _53
REMARK   23  A    between atoms: _55  and  _57
REMARK   24  A    between atoms: _57  and  _58
REMARK   25  A    between atoms: _60  and  _62
REMARK   26  A    between atoms: _62  and  _63
REMARK   27  A    between atoms: _62  and  _65
REMARK   28  A    between atoms: _65  and  _66
REMARK   29  A    between atoms: _69  and  _71
REMARK   30  A    between atoms: _71  and  _72
REMARK   31  A    between atoms: _74  and  _76
REMARK   32  A    between atoms: _76  and  _77
REMARK   33  A    between atoms: _76  and  _79
REMARK   34  A    between atoms: _79  and  _80
REMARK   35  A    between atoms: _80  and  _81
REMARK   36  A    between atoms: _81  and  _82
REMARK   37  A    between atoms: _91  and  _93
REMARK   38  A    between atoms: _93  and  _94
REMARK   39  A    between atoms: _93  and  _96
REMARK   40  A    between atoms: _96  and  _97
REMARK   41  A    between atoms: _100  and  _102
REMARK   42  A    between atoms: _102  and  _103
REMARK   43  A    between atoms: _106  and  _108
REMARK   44  A    between atoms: _108  and  _109
REMARK   45  A    between atoms: _108  and  _111
REMARK   46  A    between atoms: _111  and  _112
REMARK   47  A    between atoms: _118  and  _120
REMARK   48  A    between atoms: _120  and  _121
REMARK   49  A    between atoms: _120  and  _123
REMARK   50  A    between atoms: _123  and  _124
REMARK   51  A    between atoms: _129  and  _130
REMARK   52  A    between atoms: _132  and  _134
REMARK   53  A    between atoms: _134  and  _135
REMARK   54  A    between atoms: _134  and  _137
REMARK   55  A    between atoms: _137  and  _138
REMARK   56  A    between atoms: _141  and  _143
REMARK   57  A    between atoms: _143  and  _144
REMARK   58  A    between atoms: _143  and  _146
REMARK   59  A    between atoms: _146  and  _147
REMARK   60  A    between atoms: _152  and  _153
REMARK   61  A    between atoms: _156  and  _157
REMARK   62  A    between atoms: _162  and  _164
REMARK   63  A    between atoms: _164  and  _165
REMARK   64  A    between atoms: _164  and  _167
REMARK   65  A    between atoms: _167  and  _168
REMARK   66  A    between atoms: _173  and  _175
REMARK   67  A    between atoms: _175  and  _176
REMARK   68  A    between atoms: _175  and  _178
REMARK   69  A    between atoms: _178  and  _179
REMARK   70  A    between atoms: _182  and  _184
REMARK   71  A    between atoms: _184  and  _185
REMARK   72  A    between atoms: _184  and  _187
REMARK   73  A    between atoms: _187  and  _188
REMARK   74  A    between atoms: _193  and  _195
REMARK   75  A    between atoms: _195  and  _196
REMARK   76  A    between atoms: _195  and  _198
REMARK   77  A    between atoms: _198  and  _199
REMARK   78  A    between atoms: _205  and  _207
REMARK   79  A    between atoms: _207  and  _208
REMARK   80  A    between atoms: _207  and  _210
REMARK   81  A    between atoms: _210  and  _211
REMARK   82  A    between atoms: _217  and  _219
REMARK   83  A    between atoms: _219  and  _220
REMARK   84  A    between atoms: _219  and  _222
REMARK   85  A    between atoms: _222  and  _223
REMARK   86  A    between atoms: _223  and  _224
REMARK   87  A    between atoms: _227  and  _229
REMARK   88  A    between atoms: _229  and  _230
REMARK   89  A    between atoms: _229  and  _232
REMARK   90  A    between atoms: _232  and  _233
REMARK   91  A    between atoms: _233  and  _234
REMARK   92  A    between atoms: _234  and  _235
REMARK   93  A    between atoms: _244  and  _246
REMARK   94  A    between atoms: _246  and  _247
REMARK   95  A    between atoms: _246  and  _249
REMARK   96  A    between atoms: _249  and  _250
REMARK   97  A    between atoms: _250  and  _251
REMARK   98  A    between atoms: _254  and  _256
REMARK   99  A    between atoms: _256  and  _257
REMARK  100  A    between atoms: _256  and  _259
REMARK  101  A    between atoms: _259  and  _260
REMARK  102  A    between atoms: _265  and  _267
REMARK  103  A    between atoms: _267  and  _268
REMARK  104  A    between atoms: _267  and  _270
REMARK  105  A    between atoms: _270  and  _271
REMARK  106  A    between atoms: _274  and  _276
REMARK  107  A    between atoms: _276  and  _277
REMARK  108  A    between atoms: _276  and  _279
REMARK  109  A    between atoms: _279  and  _280
REMARK  110  A    between atoms: _283  and  _285
REMARK  111  A    between atoms: _285  and  _286
REMARK  112  A    between atoms: _285  and  _288
REMARK  113  A    between atoms: _288  and  _289
REMARK  114  A    between atoms: _294  and  _296
REMARK  115  A    between atoms: _296  and  _297
REMARK  116  A    between atoms: _296  and  _299
REMARK  117  A    between atoms: _299  and  _300
REMARK  118  A    between atoms: _303  and  _305
REMARK  119  A    between atoms: _305  and  _306
REMARK  120  A    between atoms: _305  and  _308
REMARK  121  A    between atoms: _308  and  _309
REMARK  122  A    between atoms: _314  and  _316
REMARK  123  A    between atoms: _316  and  _317
REMARK  124  A    between atoms: _316  and  _319
REMARK  125  A    between atoms: _319  and  _320
REMARK  126  A    between atoms: _325  and  _327
REMARK  127  A    between atoms: _327  and  _328
REMARK  128  A    between atoms: _327  and  _330
REMARK  129  A    between atoms: _330  and  _331
REMARK  130  A    between atoms: _334  and  _336
REMARK  131  A    between atoms: _336  and  _337
REMARK  132  A    between atoms: _336  and  _339
REMARK  133  A    between atoms: _342  and  _344
REMARK  134  A    between atoms: _344  and  _345
REMARK  135  A    between atoms: _344  and  _347
REMARK  136  A    between atoms: _347  and  _348
REMARK  137  A    between atoms: _351  and  _353
REMARK  138  A    between atoms: _353  and  _354
REMARK  139  A    between atoms: _353  and  _356
REMARK  140  A    between atoms: _356  and  _357
REMARK  141  A    between atoms: _357  and  _358
REMARK  142  A    between atoms: _361  and  _363
REMARK  143  A    between atoms: _363  and  _364
REMARK  144  A    between atoms: _367  and  _369
REMARK  145  A    between atoms: _369  and  _370
REMARK  146  A    between atoms: _369  and  _372
REMARK  147  A    between atoms: _372  and  _373
REMARK  148  A    between atoms: _376  and  _378
REMARK  149  A    between atoms: _378  and  _379
REMARK  150  A    between atoms: _378  and  _381
REMARK  151  A    between atoms: _381  and  _382
REMARK  152  A    between atoms: _382  and  _383
REMARK  153  A    between atoms: _386  and  _388
REMARK  154  A    between atoms: _388  and  _389
REMARK  155  A    between atoms: _388  and  _391
REMARK  156  A    between atoms: _391  and  _392
REMARK  157  A    between atoms: _397  and  _399
REMARK  158  A    between atoms: _399  and  _400
REMARK  159  A    between atoms: _402  and  _404
REMARK  160  A    between atoms: _404  and  _405
REMARK  161  A    between atoms: _404  and  _407
REMARK  162  A    between atoms: _410  and  _412
REMARK  163  A    between atoms: _412  and  _413
REMARK  164  A    between atoms: _416  and  _418
REMARK  165  A    between atoms: _418  and  _419
REMARK  166  A    between atoms: _418  and  _421
REMARK  167  A    between atoms: _421  and  _422
REMARK  168  A    between atoms: _427  and  _429
REMARK  169  A    between atoms: _429  and  _430
REMARK  170  A    between atoms: _429  and  _432
REMARK  171  A    between atoms: _432  and  _433
REMARK  172  A    between atoms: _433  and  _434
REMARK  173  A    between atoms: _434  and  _435
REMARK  174  A    between atoms: _435  and  _436
REMARK  175  A    between atoms: _440  and  _442
REMARK  176  A    between atoms: _442  and  _443
REMARK  177  A    between atoms: _442  and  _445
REMARK  178  A    between atoms: _445  and  _446
REMARK  179  A    between atoms: _449  and  _451
REMARK  180  A    between atoms: _451  and  _452
REMARK  181  A    between atoms: _451  and  _454
REMARK  182  A    between atoms: _454  and  _455
REMARK  183  A    between atoms: _460  and  _462
REMARK  184  A    between atoms: _462  and  _463
REMARK  185  A    between atoms: _465  and  _467
REMARK  186  A    between atoms: _467  and  _468
REMARK  187  A    between atoms: _467  and  _470
REMARK  188  A    between atoms: _470  and  _471
REMARK  189  A    between atoms: _471  and  _472
REMARK  190  A    between atoms: _472  and  _473
REMARK  191  A    between atoms: _473  and  _474
REMARK  192  A    between atoms: _478  and  _480
REMARK  193  A    between atoms: _480  and  _481
REMARK  194  A    between atoms: _480  and  _483
REMARK  195  A    between atoms: _483  and  _484
REMARK  196  A    between atoms: _484  and  _485
REMARK  197  A    between atoms: _485  and  _486
REMARK  198  A    between atoms: _495  and  _497
REMARK  199  A    between atoms: _497  and  _498
REMARK  200  A    between atoms: _497  and  _500
REMARK  201  A    between atoms: _500  and  _501
REMARK  202  A    between atoms: _506  and  _507
REMARK  203  A    between atoms: _509  and  _511
REMARK  204  A    between atoms: _511  and  _512
REMARK  205  A    between atoms: _511  and  _514
REMARK  206  A    between atoms: _514  and  _515
REMARK  207  A    between atoms: _515  and  _516
REMARK  208  A    between atoms: _516  and  _517
REMARK  209  A    between atoms: _517  and  _518
REMARK  210  A    between atoms: _522  and  _524
REMARK  211  A    between atoms: _524  and  _525
REMARK  212  A    between atoms: _524  and  _527
REMARK  213  A    between atoms: _527  and  _528
REMARK  214  A    between atoms: _530  and  _532
REMARK  215  A    between atoms: _532  and  _533
REMARK  216  A    between atoms: _532  and  _535
REMARK  217  A    between atoms: _535  and  _536
REMARK  218  A    between atoms: _539  and  _541
REMARK  219  A    between atoms: _541  and  _542
REMARK  220  A    between atoms: _541  and  _544
REMARK  221  A    between atoms: _544  and  _545
REMARK  222  A    between atoms: _545  and  _546
REMARK  223  A    between atoms: _549  and  _551
REMARK  224  A    between atoms: _551  and  _552
REMARK  225  A    between atoms: _555  and  _557
REMARK  226  A    between atoms: _557  and  _558
REMARK  227  A    between atoms: _557  and  _560
REMARK  228  A    between atoms: _560  and  _561
REMARK  229  A    between atoms: _563  and  _565
REMARK  230  A    between atoms: _565  and  _566
REMARK  231  A    between atoms: _568  and  _570
REMARK  232  A    between atoms: _570  and  _571
REMARK  233  A    between atoms: _570  and  _573
REMARK  234  A    between atoms: _573  and  _574
REMARK  235  A    between atoms: _577  and  _579
REMARK  236  A    between atoms: _579  and  _580
REMARK  237  A    between atoms: _582  and  _584
REMARK  238  A    between atoms: _584  and  _585
REMARK  239  A    between atoms: _584  and  _587
REMARK  240  A    between atoms: _587  and  _588
REMARK  241  A    between atoms: _593  and  _595
REMARK  242  A    between atoms: _595  and  _596
REMARK  243  A    between atoms: _595  and  _598
REMARK  244  A    between atoms: _598  and  _599
REMARK  245  A    between atoms: _599  and  _600
REMARK  246  A    between atoms: _607  and  _608
REMARK  247  A    between atoms: _608  and  _624
REMARK  248  A    between atoms: _609  and  _611
REMARK  249  A    between atoms: _611  and  _612
REMARK  250  A    between atoms: _612  and  _613
REMARK  251  A    between atoms: _617  and  _619
REMARK  252  A    between atoms: _619  and  _620
REMARK  253  A    between atoms: _619  and  _627
REMARK  254  A    between atoms: _620  and  _621
REMARK  255  A    between atoms: _621  and  _622
REMARK  256  A    between atoms: _622  and  _623
REMARK  257  A    between atoms: _623  and  _624
REMARK  258  A    between atoms: _629  and  _631
REMARK  259  A    between atoms: _631  and  _632
REMARK  260  A    between atoms: _631  and  _634
REMARK  261  A    between atoms: _634  and  _635
REMARK  262  A    between atoms: _638  and  _640
REMARK  263  A    between atoms: _640  and  _641
REMARK  264  A    between atoms: _643  and  _645
REMARK  265  A    between atoms: _645  and  _646
REMARK  266  A    between atoms: _649  and  _651
REMARK  267  A    between atoms: _651  and  _652
REMARK  268  A    between atoms: _651  and  _654
REMARK  269  A    between atoms: _654  and  _655
REMARK  270  A    between atoms: _660  and  _661
REMARK                            x       y       z     vdW  Elec       q    Type
REMARK                         _______ _______ _______ _____ _____    ______ ____
ROOT
ATOM      1  O   HOH     1      35.926  24.004  37.408  0.00  0.00    +0.000 OA
ENDROOT
TORSDOF 0
REMARK  Name = ../refined-set-2016/2qrm/2qrm_pocket.pdb
REMARK  270 active torsions:
REMARK  status: ('A' for Active; 'I' for Inactive)
REMARK    1  A    between atoms: _1  and  _3
REMARK    2  A    between atoms: _3  and  _4
REMARK    3  A    between atoms: _3  and  _6
REMARK    4  A    between atoms: _6  and  _7
REMARK    5  A    between atoms: _12  and  _13
REMARK    6  A    between atoms: _15  and  _17
REMARK    7  A    between atoms: _17  and  _18
REMARK    8  A    between atoms: _17  and  _20
REMARK    9  A    between atoms: _20  and  _21
REMARK   10  A    between atoms: _24  and  _26
REMARK   11  A    between atoms: _26  and  _27
REMARK   12  A    between atoms: _26  and  _29
REMARK   13  A    between atoms: _29  and  _30
REMARK   14  A    between atoms: _30  and  _31
REMARK   15  A    between atoms: _34  and  _36
REMARK   16  A    between atoms: _36  and  _37
REMARK   17  A    between atoms: _39  and  _41
REMARK   18  A    between atoms: _41  and  _42
REMARK   19  A    between atoms: _41  and  _44
REMARK   20  A    between atoms: _44  and  _45
REMARK   21  A    between atoms: _50  and  _52
REMARK   22  A    between atoms: _52  and  _53
REMARK   23  A    between atoms: _55  and  _57
REMARK   24  A    between atoms: _57  and  _58
REMARK   25  A    between atoms: _60  and  _62
REMARK   26  A    between atoms: _62  and  _63
REMARK   27  A    between atoms: _62  and  _65
REMARK   28  A    between atoms: _65  and  _66
REMARK   29  A    between atoms: _69  and  _71
REMARK   30  A    between atoms: _71  and  _72
REMARK   31  A    between atoms: _74  and  _76
REMARK   32  A    between atoms: _76  and  _77
REMARK   33  A    between atoms: _76  and  _79
REMARK   34  A    between atoms: _79  and  _80
REMARK   35  A    between atoms: _80  and  _81
REMARK   36  A    between atoms: _81  and  _82
REMARK   37  A    between atoms: _91  and  _93
REMARK   38  A    between atoms: _93  and  _94
REMARK   39  A    between atoms: _93  and  _96
REMARK   40  A    between atoms: _96  and  _97
REMARK   41  A    between atoms: _100  and  _102
REMARK   42  A    between atoms: _102  and  _103
REMARK   43  A    between atoms: _106  and  _108
REMARK   44  A    between atoms: _108  and  _109
REMARK   45  A    between atoms: _108  and  _111
REMARK   46  A    between atoms: _111  and  _112
REMARK   47  A    between atoms: _118  and  _120
REMARK   48  A    between atoms: _120  and  _121
REMARK   49  A    between atoms: _120  and  _123
REMARK   50  A    between atoms: _123  and  _124
REMARK   51  A    between atoms: _129  and  _130
REMARK   52  A    between atoms: _132  and  _134
REMARK   53  A    between atoms: _134  and  _135
REMARK   54  A    between atoms: _134  and  _137
REMARK   55  A    between atoms: _137  and  _138
REMARK   56  A    between atoms: _141  and  _143
REMARK   57  A    between atoms: _143  and  _144
REMARK   58  A    between atoms: _143  and  _146
REMARK   59  A    between atoms: _146  and  _147
REMARK   60  A    between atoms: _152  and  _153
REMARK   61  A    between atoms: _156  and  _157
REMARK   62  A    between atoms: _162  and  _164
REMARK   63  A    between atoms: _164  and  _165
REMARK   64  A    between atoms: _164  and  _167
REMARK   65  A    between atoms: _167  and  _168
REMARK   66  A    between atoms: _173  and  _175
REMARK   67  A    between atoms: _175  and  _176
REMARK   68  A    between atoms: _175  and  _178
REMARK   69  A    between atoms: _178  and  _179
REMARK   70  A    between atoms: _182  and  _184
REMARK   71  A    between atoms: _184  and  _185
REMARK   72  A    between atoms: _184  and  _187
REMARK   73  A    between atoms: _187  and  _188
REMARK   74  A    between atoms: _193  and  _195
REMARK   75  A    between atoms: _195  and  _196
REMARK   76  A    between atoms: _195  and  _198
REMARK   77  A    between atoms: _198  and  _199
REMARK   78  A    between atoms: _205  and  _207
REMARK   79  A    between atoms: _207  and  _208
REMARK   80  A    between atoms: _207  and  _210
REMARK   81  A    between atoms: _210  and  _211
REMARK   82  A    between atoms: _217  and  _219
REMARK   83  A    between atoms: _219  and  _220
REMARK   84  A    between atoms: _219  and  _222
REMARK   85  A    between atoms: _222  and  _223
REMARK   86  A    between atoms: _223  and  _224
REMARK   87  A    between atoms: _227  and  _229
REMARK   88  A    between atoms: _229  and  _230
REMARK   89  A    between atoms: _229  and  _232
REMARK   90  A    between atoms: _232  and  _233
REMARK   91  A    between atoms: _233  and  _234
REMARK   92  A    between atoms: _234  and  _235
REMARK   93  A    between atoms: _244  and  _246
REMARK   94  A    between atoms: _246  and  _247
REMARK   95  A    between atoms: _246  and  _249
REMARK   96  A    between atoms: _249  and  _250
REMARK   97  A    between atoms: _250  and  _251
REMARK   98  A    between atoms: _254  and  _256
REMARK   99  A    between atoms: _256  and  _257
REMARK  100  A    between atoms: _256  and  _259
REMARK  101  A    between atoms: _259  and  _260
REMARK  102  A    between atoms: _265  and  _267
REMARK  103  A    between atoms: _267  and  _268
REMARK  104  A    between atoms: _267  and  _270
REMARK  105  A    between atoms: _270  and  _271
REMARK  106  A    between atoms: _274  and  _276
REMARK  107  A    between atoms: _276  and  _277
REMARK  108  A    between atoms: _276  and  _279
REMARK  109  A    between atoms: _279  and  _280
REMARK  110  A    between atoms: _283  and  _285
REMARK  111  A    between atoms: _285  and  _286
REMARK  112  A    between atoms: _285  and  _288
REMARK  113  A    between atoms: _288  and  _289
REMARK  114  A    between atoms: _294  and  _296
REMARK  115  A    between atoms: _296  and  _297
REMARK  116  A    between atoms: _296  and  _299
REMARK  117  A    between atoms: _299  and  _300
REMARK  118  A    between atoms: _303  and  _305
REMARK  119  A    between atoms: _305  and  _306
REMARK  120  A    between atoms: _305  and  _308
REMARK  121  A    between atoms: _308  and  _309
REMARK  122  A    between atoms: _314  and  _316
REMARK  123  A    between atoms: _316  and  _317
REMARK  124  A    between atoms: _316  and  _319
REMARK  125  A    between atoms: _319  and  _320
REMARK  126  A    between atoms: _325  and  _327
REMARK  127  A    between atoms: _327  and  _328
REMARK  128  A    between atoms: _327  and  _330
REMARK  129  A    between atoms: _330  and  _331
REMARK  130  A    between atoms: _334  and  _336
REMARK  131  A    between atoms: _336  and  _337
REMARK  132  A    between atoms: _336  and  _339
REMARK  133  A    between atoms: _342  and  _344
REMARK  134  A    between atoms: _344  and  _345
REMARK  135  A    between atoms: _344  and  _347
REMARK  136  A    between atoms: _347  and  _348
REMARK  137  A    between atoms: _351  and  _353
REMARK  138  A    between atoms: _353  and  _354
REMARK  139  A    between atoms: _353  and  _356
REMARK  140  A    between atoms: _356  and  _357
REMARK  141  A    between atoms: _357  and  _358
REMARK  142  A    between atoms: _361  and  _363
REMARK  143  A    between atoms: _363  and  _364
REMARK  144  A    between atoms: _367  and  _369
REMARK  145  A    between atoms: _369  and  _370
REMARK  146  A    between atoms: _369  and  _372
REMARK  147  A    between atoms: _372  and  _373
REMARK  148  A    between atoms: _376  and  _378
REMARK  149  A    between atoms: _378  and  _379
REMARK  150  A    between atoms: _378  and  _381
REMARK  151  A    between atoms: _381  and  _382
REMARK  152  A    between atoms: _382  and  _383
REMARK  153  A    between atoms: _386  and  _388
REMARK  154  A    between atoms: _388  and  _389
REMARK  155  A    between atoms: _388  and  _391
REMARK  156  A    between atoms: _391  and  _392
REMARK  157  A    between atoms: _397  and  _399
REMARK  158  A    between atoms: _399  and  _400
REMARK  159  A    between atoms: _402  and  _404
REMARK  160  A    between atoms: _404  and  _405
REMARK  161  A    between atoms: _404  and  _407
REMARK  162  A    between atoms: _410  and  _412
REMARK  163  A    between atoms: _412  and  _413
REMARK  164  A    between atoms: _416  and  _418
REMARK  165  A    between atoms: _418  and  _419
REMARK  166  A    between atoms: _418  and  _421
REMARK  167  A    between atoms: _421  and  _422
REMARK  168  A    between atoms: _427  and  _429
REMARK  169  A    between atoms: _429  and  _430
REMARK  170  A    between atoms: _429  and  _432
REMARK  171  A    between atoms: _432  and  _433
REMARK  172  A    between atoms: _433  and  _434
REMARK  173  A    between atoms: _434  and  _435
REMARK  174  A    between atoms: _435  and  _436
REMARK  175  A    between atoms: _440  and  _442
REMARK  176  A    between atoms: _442  and  _443
REMARK  177  A    between atoms: _442  and  _445
REMARK  178  A    between atoms: _445  and  _446
REMARK  179  A    between atoms: _449  and  _451
REMARK  180  A    between atoms: _451  and  _452
REMARK  181  A    between atoms: _451  and  _454
REMARK  182  A    between atoms: _454  and  _455
REMARK  183  A    between atoms: _460  and  _462
REMARK  184  A    between atoms: _462  and  _463
REMARK  185  A    between atoms: _465  and  _467
REMARK  186  A    between atoms: _467  and  _468
REMARK  187  A    between atoms: _467  and  _470
REMARK  188  A    between atoms: _470  and  _471
REMARK  189  A    between atoms: _471  and  _472
REMARK  190  A    between atoms: _472  and  _473
REMARK  191  A    between atoms: _473  and  _474
REMARK  192  A    between atoms: _478  and  _480
REMARK  193  A    between atoms: _480  and  _481
REMARK  194  A    between atoms: _480  and  _483
REMARK  195  A    between atoms: _483  and  _484
REMARK  196  A    between atoms: _484  and  _485
REMARK  197  A    between atoms: _485  and  _486
REMARK  198  A    between atoms: _495  and  _497
REMARK  199  A    between atoms: _497  and  _498
REMARK  200  A    between atoms: _497  and  _500
REMARK  201  A    between atoms: _500  and  _501
REMARK  202  A    between atoms: _506  and  _507
REMARK  203  A    between atoms: _509  and  _511
REMARK  204  A    between atoms: _511  and  _512
REMARK  205  A    between atoms: _511  and  _514
REMARK  206  A    between atoms: _514  and  _515
REMARK  207  A    between atoms: _515  and  _516
REMARK  208  A    between atoms: _516  and  _517
REMARK  209  A    between atoms: _517  and  _518
REMARK  210  A    between atoms: _522  and  _524
REMARK  211  A    between atoms: _524  and  _525
REMARK  212  A    between atoms: _524  and  _527
REMARK  213  A    between atoms: _527  and  _528
REMARK  214  A    between atoms: _530  and  _532
REMARK  215  A    between atoms: _532  and  _533
REMARK  216  A    between atoms: _532  and  _535
REMARK  217  A    between atoms: _535  and  _536
REMARK  218  A    between atoms: _539  and  _541
REMARK  219  A    between atoms: _541  and  _542
REMARK  220  A    between atoms: _541  and  _544
REMARK  221  A    between atoms: _544  and  _545
REMARK  222  A    between atoms: _545  and  _546
REMARK  223  A    between atoms: _549  and  _551
REMARK  224  A    between atoms: _551  and  _552
REMARK  225  A    between atoms: _555  and  _557
REMARK  226  A    between atoms: _557  and  _558
REMARK  227  A    between atoms: _557  and  _560
REMARK  228  A    between atoms: _560  and  _561
REMARK  229  A    between atoms: _563  and  _565
REMARK  230  A    between atoms: _565  and  _566
REMARK  231  A    between atoms: _568  and  _570
REMARK  232  A    between atoms: _570  and  _571
REMARK  233  A    between atoms: _570  and  _573
REMARK  234  A    between atoms: _573  and  _574
REMARK  235  A    between atoms: _577  and  _579
REMARK  236  A    between atoms: _579  and  _580
REMARK  237  A    between atoms: _582  and  _584
REMARK  238  A    between atoms: _584  and  _585
REMARK  239  A    between atoms: _584  and  _587
REMARK  240  A    between atoms: _587  and  _588
REMARK  241  A    between atoms: _593  and  _595
REMARK  242  A    between atoms: _595  and  _596
REMARK  243  A    between atoms: _595  and  _598
REMARK  244  A    between atoms: _598  and  _599
REMARK  245  A    between atoms: _599  and  _600
REMARK  246  A    between atoms: _607  and  _608
REMARK  247  A    between atoms: _608  and  _624
REMARK  248  A    between atoms: _609  and  _611
REMARK  249  A    between atoms: _611  and  _612
REMARK  250  A    between atoms: _612  and  _613
REMARK  251  A    between atoms: _617  and  _619
REMARK  252  A    between atoms: _619  and  _620
REMARK  253  A    between atoms: _619  and  _627
REMARK  254  A    between atoms: _620  and  _621
REMARK  255  A    between atoms: _621  and  _622
REMARK  256  A    between atoms: _622  and  _623
REMARK  257  A    between atoms: _623  and  _624
REMARK  258  A    between atoms: _629  and  _631
REMARK  259  A    between atoms: _631  and  _632
REMARK  260  A    between atoms: _631  and  _634
REMARK  261  A    between atoms: _634  and  _635
REMARK  262  A    between atoms: _638  and  _640
REMARK  263  A    between atoms: _640  and  _641
REMARK  264  A    between atoms: _643  and  _645
REMARK  265  A    between atoms: _645  and  _646
REMARK  266  A    between atoms: _649  and  _651
REMARK  267  A    between atoms: _651  and  _652
REMARK  268  A    between atoms: _651  and  _654
REMARK  269  A    between atoms: _654  and  _655
REMARK  270  A    between atoms: _660  and  _661
REMARK                            x       y       z     vdW  Elec       q    Type
REMARK                         _______ _______ _______ _____ _____    ______ ____
ROOT
ATOM      1  O   HOH     1      34.972  26.478  38.645  0.00  0.00    +0.000 OA
ENDROOT
TORSDOF 0
REMARK  Name = ../refined-set-2016/2qrm/2qrm_pocket.pdb
REMARK  270 active torsions:
REMARK  status: ('A' for Active; 'I' for Inactive)
REMARK    1  A    between atoms: _1  and  _3
REMARK    2  A    between atoms: _3  and  _4
REMARK    3  A    between atoms: _3  and  _6
REMARK    4  A    between atoms: _6  and  _7
REMARK    5  A    between atoms: _12  and  _13
REMARK    6  A    between atoms: _15  and  _17
REMARK    7  A    between atoms: _17  and  _18
REMARK    8  A    between atoms: _17  and  _20
REMARK    9  A    between atoms: _20  and  _21
REMARK   10  A    between atoms: _24  and  _26
REMARK   11  A    between atoms: _26  and  _27
REMARK   12  A    between atoms: _26  and  _29
REMARK   13  A    between atoms: _29  and  _30
REMARK   14  A    between atoms: _30  and  _31
REMARK   15  A    between atoms: _34  and  _36
REMARK   16  A    between atoms: _36  and  _37
REMARK   17  A    between atoms: _39  and  _41
REMARK   18  A    between atoms: _41  and  _42
REMARK   19  A    between atoms: _41  and  _44
REMARK   20  A    between atoms: _44  and  _45
REMARK   21  A    between atoms: _50  and  _52
REMARK   22  A    between atoms: _52  and  _53
REMARK   23  A    between atoms: _55  and  _57
REMARK   24  A    between atoms: _57  and  _58
REMARK   25  A    between atoms: _60  and  _62
REMARK   26  A    between atoms: _62  and  _63
REMARK   27  A    between atoms: _62  and  _65
REMARK   28  A    between atoms: _65  and  _66
REMARK   29  A    between atoms: _69  and  _71
REMARK   30  A    between atoms: _71  and  _72
REMARK   31  A    between atoms: _74  and  _76
REMARK   32  A    between atoms: _76  and  _77
REMARK   33  A    between atoms: _76  and  _79
REMARK   34  A    between atoms: _79  and  _80
REMARK   35  A    between atoms: _80  and  _81
REMARK   36  A    between atoms: _81  and  _82
REMARK   37  A    between atoms: _91  and  _93
REMARK   38  A    between atoms: _93  and  _94
REMARK   39  A    between atoms: _93  and  _96
REMARK   40  A    between atoms: _96  and  _97
REMARK   41  A    between atoms: _100  and  _102
REMARK   42  A    between atoms: _102  and  _103
REMARK   43  A    between atoms: _106  and  _108
REMARK   44  A    between atoms: _108  and  _109
REMARK   45  A    between atoms: _108  and  _111
REMARK   46  A    between atoms: _111  and  _112
REMARK   47  A    between atoms: _118  and  _120
REMARK   48  A    between atoms: _120  and  _121
REMARK   49  A    between atoms: _120  and  _123
REMARK   50  A    between atoms: _123  and  _124
REMARK   51  A    between atoms: _129  and  _130
REMARK   52  A    between atoms: _132  and  _134
REMARK   53  A    between atoms: _134  and  _135
REMARK   54  A    between atoms: _134  and  _137
REMARK   55  A    between atoms: _137  and  _138
REMARK   56  A    between atoms: _141  and  _143
REMARK   57  A    between atoms: _143  and  _144
REMARK   58  A    between atoms: _143  and  _146
REMARK   59  A    between atoms: _146  and  _147
REMARK   60  A    between atoms: _152  and  _153
REMARK   61  A    between atoms: _156  and  _157
REMARK   62  A    between atoms: _162  and  _164
REMARK   63  A    between atoms: _164  and  _165
REMARK   64  A    between atoms: _164  and  _167
REMARK   65  A    between atoms: _167  and  _168
REMARK   66  A    between atoms: _173  and  _175
REMARK   67  A    between atoms: _175  and  _176
REMARK   68  A    between atoms: _175  and  _178
REMARK   69  A    between atoms: _178  and  _179
REMARK   70  A    between atoms: _182  and  _184
REMARK   71  A    between atoms: _184  and  _185
REMARK   72  A    between atoms: _184  and  _187
REMARK   73  A    between atoms: _187  and  _188
REMARK   74  A    between atoms: _193  and  _195
REMARK   75  A    between atoms: _195  and  _196
REMARK   76  A    between atoms: _195  and  _198
REMARK   77  A    between atoms: _198  and  _199
REMARK   78  A    between atoms: _205  and  _207
REMARK   79  A    between atoms: _207  and  _208
REMARK   80  A    between atoms: _207  and  _210
REMARK   81  A    between atoms: _210  and  _211
REMARK   82  A    between atoms: _217  and  _219
REMARK   83  A    between atoms: _219  and  _220
REMARK   84  A    between atoms: _219  and  _222
REMARK   85  A    between atoms: _222  and  _223
REMARK   86  A    between atoms: _223  and  _224
REMARK   87  A    between atoms: _227  and  _229
REMARK   88  A    between atoms: _229  and  _230
REMARK   89  A    between atoms: _229  and  _232
REMARK   90  A    between atoms: _232  and  _233
REMARK   91  A    between atoms: _233  and  _234
REMARK   92  A    between atoms: _234  and  _235
REMARK   93  A    between atoms: _244  and  _246
REMARK   94  A    between atoms: _246  and  _247
REMARK   95  A    between atoms: _246  and  _249
REMARK   96  A    between atoms: _249  and  _250
REMARK   97  A    between atoms: _250  and  _251
REMARK   98  A    between atoms: _254  and  _256
REMARK   99  A    between atoms: _256  and  _257
REMARK  100  A    between atoms: _256  and  _259
REMARK  101  A    between atoms: _259  and  _260
REMARK  102  A    between atoms: _265  and  _267
REMARK  103  A    between atoms: _267  and  _268
REMARK  104  A    between atoms: _267  and  _270
REMARK  105  A    between atoms: _270  and  _271
REMARK  106  A    between atoms: _274  and  _276
REMARK  107  A    between atoms: _276  and  _277
REMARK  108  A    between atoms: _276  and  _279
REMARK  109  A    between atoms: _279  and  _280
REMARK  110  A    between atoms: _283  and  _285
REMARK  111  A    between atoms: _285  and  _286
REMARK  112  A    between atoms: _285  and  _288
REMARK  113  A    between atoms: _288  and  _289
REMARK  114  A    between atoms: _294  and  _296
REMARK  115  A    between atoms: _296  and  _297
REMARK  116  A    between atoms: _296  and  _299
REMARK  117  A    between atoms: _299  and  _300
REMARK  118  A    between atoms: _303  and  _305
REMARK  119  A    between atoms: _305  and  _306
REMARK  120  A    between atoms: _305  and  _308
REMARK  121  A    between atoms: _308  and  _309
REMARK  122  A    between atoms: _314  and  _316
REMARK  123  A    between atoms: _316  and  _317
REMARK  124  A    between atoms: _316  and  _319
REMARK  125  A    between atoms: _319  and  _320
REMARK  126  A    between atoms: _325  and  _327
REMARK  127  A    between atoms: _327  and  _328
REMARK  128  A    between atoms: _327  and  _330
REMARK  129  A    between atoms: _330  and  _331
REMARK  130  A    between atoms: _334  and  _336
REMARK  131  A    between atoms: _336  and  _337
REMARK  132  A    between atoms: _336  and  _339
REMARK  133  A    between atoms: _342  and  _344
REMARK  134  A    between atoms: _344  and  _345
REMARK  135  A    between atoms: _344  and  _347
REMARK  136  A    between atoms: _347  and  _348
REMARK  137  A    between atoms: _351  and  _353
REMARK  138  A    between atoms: _353  and  _354
REMARK  139  A    between atoms: _353  and  _356
REMARK  140  A    between atoms: _356  and  _357
REMARK  141  A    between atoms: _357  and  _358
REMARK  142  A    between atoms: _361  and  _363
REMARK  143  A    between atoms: _363  and  _364
REMARK  144  A    between atoms: _367  and  _369
REMARK  145  A    between atoms: _369  and  _370
REMARK  146  A    between atoms: _369  and  _372
REMARK  147  A    between atoms: _372  and  _373
REMARK  148  A    between atoms: _376  and  _378
REMARK  149  A    between atoms: _378  and  _379
REMARK  150  A    between atoms: _378  and  _381
REMARK  151  A    between atoms: _381  and  _382
REMARK  152  A    between atoms: _382  and  _383
REMARK  153  A    between atoms: _386  and  _388
REMARK  154  A    between atoms: _388  and  _389
REMARK  155  A    between atoms: _388  and  _391
REMARK  156  A    between atoms: _391  and  _392
REMARK  157  A    between atoms: _397  and  _399
REMARK  158  A    between atoms: _399  and  _400
REMARK  159  A    between atoms: _402  and  _404
REMARK  160  A    between atoms: _404  and  _405
REMARK  161  A    between atoms: _404  and  _407
REMARK  162  A    between atoms: _410  and  _412
REMARK  163  A    between atoms: _412  and  _413
REMARK  164  A    between atoms: _416  and  _418
REMARK  165  A    between atoms: _418  and  _419
REMARK  166  A    between atoms: _418  and  _421
REMARK  167  A    between atoms: _421  and  _422
REMARK  168  A    between atoms: _427  and  _429
REMARK  169  A    between atoms: _429  and  _430
REMARK  170  A    between atoms: _429  and  _432
REMARK  171  A    between atoms: _432  and  _433
REMARK  172  A    between atoms: _433  and  _434
REMARK  173  A    between atoms: _434  and  _435
REMARK  174  A    between atoms: _435  and  _436
REMARK  175  A    between atoms: _440  and  _442
REMARK  176  A    between atoms: _442  and  _443
REMARK  177  A    between atoms: _442  and  _445
REMARK  178  A    between atoms: _445  and  _446
REMARK  179  A    between atoms: _449  and  _451
REMARK  180  A    between atoms: _451  and  _452
REMARK  181  A    between atoms: _451  and  _454
REMARK  182  A    between atoms: _454  and  _455
REMARK  183  A    between atoms: _460  and  _462
REMARK  184  A    between atoms: _462  and  _463
REMARK  185  A    between atoms: _465  and  _467
REMARK  186  A    between atoms: _467  and  _468
REMARK  187  A    between atoms: _467  and  _470
REMARK  188  A    between atoms: _470  and  _471
REMARK  189  A    between atoms: _471  and  _472
REMARK  190  A    between atoms: _472  and  _473
REMARK  191  A    between atoms: _473  and  _474
REMARK  192  A    between atoms: _478  and  _480
REMARK  193  A    between atoms: _480  and  _481
REMARK  194  A    between atoms: _480  and  _483
REMARK  195  A    between atoms: _483  and  _484
REMARK  196  A    between atoms: _484  and  _485
REMARK  197  A    between atoms: _485  and  _486
REMARK  198  A    between atoms: _495  and  _497
REMARK  199  A    between atoms: _497  and  _498
REMARK  200  A    between atoms: _497  and  _500
REMARK  201  A    between atoms: _500  and  _501
REMARK  202  A    between atoms: _506  and  _507
REMARK  203  A    between atoms: _509  and  _511
REMARK  204  A    between atoms: _511  and  _512
REMARK  205  A    between atoms: _511  and  _514
REMARK  206  A    between atoms: _514  and  _515
REMARK  207  A    between atoms: _515  and  _516
REMARK  208  A    between atoms: _516  and  _517
REMARK  209  A    between atoms: _517  and  _518
REMARK  210  A    between atoms: _522  and  _524
REMARK  211  A    between atoms: _524  and  _525
REMARK  212  A    between atoms: _524  and  _527
REMARK  213  A    between atoms: _527  and  _528
REMARK  214  A    between atoms: _530  and  _532
REMARK  215  A    between atoms: _532  and  _533
REMARK  216  A    between atoms: _532  and  _535
REMARK  217  A    between atoms: _535  and  _536
REMARK  218  A    between atoms: _539  and  _541
REMARK  219  A    between atoms: _541  and  _542
REMARK  220  A    between atoms: _541  and  _544
REMARK  221  A    between atoms: _544  and  _545
REMARK  222  A    between atoms: _545  and  _546
REMARK  223  A    between atoms: _549  and  _551
REMARK  224  A    between atoms: _551  and  _552
REMARK  225  A    between atoms: _555  and  _557
REMARK  226  A    between atoms: _557  and  _558
REMARK  227  A    between atoms: _557  and  _560
REMARK  228  A    between atoms: _560  and  _561
REMARK  229  A    between atoms: _563  and  _565
REMARK  230  A    between atoms: _565  and  _566
REMARK  231  A    between atoms: _568  and  _570
REMARK  232  A    between atoms: _570  and  _571
REMARK  233  A    between atoms: _570  and  _573
REMARK  234  A    between atoms: _573  and  _574
REMARK  235  A    between atoms: _577  and  _579
REMARK  236  A    between atoms: _579  and  _580
REMARK  237  A    between atoms: _582  and  _584
REMARK  238  A    between atoms: _584  and  _585
REMARK  239  A    between atoms: _584  and  _587
REMARK  240  A    between atoms: _587  and  _588
REMARK  241  A    between atoms: _593  and  _595
REMARK  242  A    between atoms: _595  and  _596
REMARK  243  A    between atoms: _595  and  _598
REMARK  244  A    between atoms: _598  and  _599
REMARK  245  A    between atoms: _599  and  _600
REMARK  246  A    between atoms: _607  and  _608
REMARK  247  A    between atoms: _608  and  _624
REMARK  248  A    between atoms: _609  and  _611
REMARK  249  A    between atoms: _611  and  _612
REMARK  250  A    between atoms: _612  and  _613
REMARK  251  A    between atoms: _617  and  _619
REMARK  252  A    between atoms: _619  and  _620
REMARK  253  A    between atoms: _619  and  _627
REMARK  254  A    between atoms: _620  and  _621
REMARK  255  A    between atoms: _621  and  _622
REMARK  256  A    between atoms: _622  and  _623
REMARK  257  A    between atoms: _623  and  _624
REMARK  258  A    between atoms: _629  and  _631
REMARK  259  A    between atoms: _631  and  _632
REMARK  260  A    between atoms: _631  and  _634
REMARK  261  A    between atoms: _634  and  _635
REMARK  262  A    between atoms: _638  and  _640
REMARK  263  A    between atoms: _640  and  _641
REMARK  264  A    between atoms: _643  and  _645
REMARK  265  A    between atoms: _645  and  _646
REMARK  266  A    between atoms: _649  and  _651
REMARK  267  A    between atoms: _651  and  _652
REMARK  268  A    between atoms: _651  and  _654
REMARK  269  A    between atoms: _654  and  _655
REMARK  270  A    between atoms: _660  and  _661
REMARK                            x       y       z     vdW  Elec       q    Type
REMARK                         _______ _______ _______ _____ _____    ______ ____
ROOT
ATOM      1  O   HOH     1      41.047  29.037  38.309  0.00  0.00    +0.000 OA
ENDROOT
TORSDOF 0
REMARK  Name = ../refined-set-2016/2qrm/2qrm_pocket.pdb
REMARK  270 active torsions:
REMARK  status: ('A' for Active; 'I' for Inactive)
REMARK    1  A    between atoms: _1  and  _3
REMARK    2  A    between atoms: _3  and  _4
REMARK    3  A    between atoms: _3  and  _6
REMARK    4  A    between atoms: _6  and  _7
REMARK    5  A    between atoms: _12  and  _13
REMARK    6  A    between atoms: _15  and  _17
REMARK    7  A    between atoms: _17  and  _18
REMARK    8  A    between atoms: _17  and  _20
REMARK    9  A    between atoms: _20  and  _21
REMARK   10  A    between atoms: _24  and  _26
REMARK   11  A    between atoms: _26  and  _27
REMARK   12  A    between atoms: _26  and  _29
REMARK   13  A    between atoms: _29  and  _30
REMARK   14  A    between atoms: _30  and  _31
REMARK   15  A    between atoms: _34  and  _36
REMARK   16  A    between atoms: _36  and  _37
REMARK   17  A    between atoms: _39  and  _41
REMARK   18  A    between atoms: _41  and  _42
REMARK   19  A    between atoms: _41  and  _44
REMARK   20  A    between atoms: _44  and  _45
REMARK   21  A    between atoms: _50  and  _52
REMARK   22  A    between atoms: _52  and  _53
REMARK   23  A    between atoms: _55  and  _57
REMARK   24  A    between atoms: _57  and  _58
REMARK   25  A    between atoms: _60  and  _62
REMARK   26  A    between atoms: _62  and  _63
REMARK   27  A    between atoms: _62  and  _65
REMARK   28  A    between atoms: _65  and  _66
REMARK   29  A    between atoms: _69  and  _71
REMARK   30  A    between atoms: _71  and  _72
REMARK   31  A    between atoms: _74  and  _76
REMARK   32  A    between atoms: _76  and  _77
REMARK   33  A    between atoms: _76  and  _79
REMARK   34  A    between atoms: _79  and  _80
REMARK   35  A    between atoms: _80  and  _81
REMARK   36  A    between atoms: _81  and  _82
REMARK   37  A    between atoms: _91  and  _93
REMARK   38  A    between atoms: _93  and  _94
REMARK   39  A    between atoms: _93  and  _96
REMARK   40  A    between atoms: _96  and  _97
REMARK   41  A    between atoms: _100  and  _102
REMARK   42  A    between atoms: _102  and  _103
REMARK   43  A    between atoms: _106  and  _108
REMARK   44  A    between atoms: _108  and  _109
REMARK   45  A    between atoms: _108  and  _111
REMARK   46  A    between atoms: _111  and  _112
REMARK   47  A    between atoms: _118  and  _120
REMARK   48  A    between atoms: _120  and  _121
REMARK   49  A    between atoms: _120  and  _123
REMARK   50  A    between atoms: _123  and  _124
REMARK   51  A    between atoms: _129  and  _130
REMARK   52  A    between atoms: _132  and  _134
REMARK   53  A    between atoms: _134  and  _135
REMARK   54  A    between atoms: _134  and  _137
REMARK   55  A    between atoms: _137  and  _138
REMARK   56  A    between atoms: _141  and  _143
REMARK   57  A    between atoms: _143  and  _144
REMARK   58  A    between atoms: _143  and  _146
REMARK   59  A    between atoms: _146  and  _147
REMARK   60  A    between atoms: _152  and  _153
REMARK   61  A    between atoms: _156  and  _157
REMARK   62  A    between atoms: _162  and  _164
REMARK   63  A    between atoms: _164  and  _165
REMARK   64  A    between atoms: _164  and  _167
REMARK   65  A    between atoms: _167  and  _168
REMARK   66  A    between atoms: _173  and  _175
REMARK   67  A    between atoms: _175  and  _176
REMARK   68  A    between atoms: _175  and  _178
REMARK   69  A    between atoms: _178  and  _179
REMARK   70  A    between atoms: _182  and  _184
REMARK   71  A    between atoms: _184  and  _185
REMARK   72  A    between atoms: _184  and  _187
REMARK   73  A    between atoms: _187  and  _188
REMARK   74  A    between atoms: _193  and  _195
REMARK   75  A    between atoms: _195  and  _196
REMARK   76  A    between atoms: _195  and  _198
REMARK   77  A    between atoms: _198  and  _199
REMARK   78  A    between atoms: _205  and  _207
REMARK   79  A    between atoms: _207  and  _208
REMARK   80  A    between atoms: _207  and  _210
REMARK   81  A    between atoms: _210  and  _211
REMARK   82  A    between atoms: _217  and  _219
REMARK   83  A    between atoms: _219  and  _220
REMARK   84  A    between atoms: _219  and  _222
REMARK   85  A    between atoms: _222  and  _223
REMARK   86  A    between atoms: _223  and  _224
REMARK   87  A    between atoms: _227  and  _229
REMARK   88  A    between atoms: _229  and  _230
REMARK   89  A    between atoms: _229  and  _232
REMARK   90  A    between atoms: _232  and  _233
REMARK   91  A    between atoms: _233  and  _234
REMARK   92  A    between atoms: _234  and  _235
REMARK   93  A    between atoms: _244  and  _246
REMARK   94  A    between atoms: _246  and  _247
REMARK   95  A    between atoms: _246  and  _249
REMARK   96  A    between atoms: _249  and  _250
REMARK   97  A    between atoms: _250  and  _251
REMARK   98  A    between atoms: _254  and  _256
REMARK   99  A    between atoms: _256  and  _257
REMARK  100  A    between atoms: _256  and  _259
REMARK  101  A    between atoms: _259  and  _260
REMARK  102  A    between atoms: _265  and  _267
REMARK  103  A    between atoms: _267  and  _268
REMARK  104  A    between atoms: _267  and  _270
REMARK  105  A    between atoms: _270  and  _271
REMARK  106  A    between atoms: _274  and  _276
REMARK  107  A    between atoms: _276  and  _277
REMARK  108  A    between atoms: _276  and  _279
REMARK  109  A    between atoms: _279  and  _280
REMARK  110  A    between atoms: _283  and  _285
REMARK  111  A    between atoms: _285  and  _286
REMARK  112  A    between atoms: _285  and  _288
REMARK  113  A    between atoms: _288  and  _289
REMARK  114  A    between atoms: _294  and  _296
REMARK  115  A    between atoms: _296  and  _297
REMARK  116  A    between atoms: _296  and  _299
REMARK  117  A    between atoms: _299  and  _300
REMARK  118  A    between atoms: _303  and  _305
REMARK  119  A    between atoms: _305  and  _306
REMARK  120  A    between atoms: _305  and  _308
REMARK  121  A    between atoms: _308  and  _309
REMARK  122  A    between atoms: _314  and  _316
REMARK  123  A    between atoms: _316  and  _317
REMARK  124  A    between atoms: _316  and  _319
REMARK  125  A    between atoms: _319  and  _320
REMARK  126  A    between atoms: _325  and  _327
REMARK  127  A    between atoms: _327  and  _328
REMARK  128  A    between atoms: _327  and  _330
REMARK  129  A    between atoms: _330  and  _331
REMARK  130  A    between atoms: _334  and  _336
REMARK  131  A    between atoms: _336  and  _337
REMARK  132  A    between atoms: _336  and  _339
REMARK  133  A    between atoms: _342  and  _344
REMARK  134  A    between atoms: _344  and  _345
REMARK  135  A    between atoms: _344  and  _347
REMARK  136  A    between atoms: _347  and  _348
REMARK  137  A    between atoms: _351  and  _353
REMARK  138  A    between atoms: _353  and  _354
REMARK  139  A    between atoms: _353  and  _356
REMARK  140  A    between atoms: _356  and  _357
REMARK  141  A    between atoms: _357  and  _358
REMARK  142  A    between atoms: _361  and  _363
REMARK  143  A    between atoms: _363  and  _364
REMARK  144  A    between atoms: _367  and  _369
REMARK  145  A    between atoms: _369  and  _370
REMARK  146  A    between atoms: _369  and  _372
REMARK  147  A    between atoms: _372  and  _373
REMARK  148  A    between atoms: _376  and  _378
REMARK  149  A    between atoms: _378  and  _379
REMARK  150  A    between atoms: _378  and  _381
REMARK  151  A    between atoms: _381  and  _382
REMARK  152  A    between atoms: _382  and  _383
REMARK  153  A    between atoms: _386  and  _388
REMARK  154  A    between atoms: _388  and  _389
REMARK  155  A    between atoms: _388  and  _391
REMARK  156  A    between atoms: _391  and  _392
REMARK  157  A    between atoms: _397  and  _399
REMARK  158  A    between atoms: _399  and  _400
REMARK  159  A    between atoms: _402  and  _404
REMARK  160  A    between atoms: _404  and  _405
REMARK  161  A    between atoms: _404  and  _407
REMARK  162  A    between atoms: _410  and  _412
REMARK  163  A    between atoms: _412  and  _413
REMARK  164  A    between atoms: _416  and  _418
REMARK  165  A    between atoms: _418  and  _419
REMARK  166  A    between atoms: _418  and  _421
REMARK  167  A    between atoms: _421  and  _422
REMARK  168  A    between atoms: _427  and  _429
REMARK  169  A    between atoms: _429  and  _430
REMARK  170  A    between atoms: _429  and  _432
REMARK  171  A    between atoms: _432  and  _433
REMARK  172  A    between atoms: _433  and  _434
REMARK  173  A    between atoms: _434  and  _435
REMARK  174  A    between atoms: _435  and  _436
REMARK  175  A    between atoms: _440  and  _442
REMARK  176  A    between atoms: _442  and  _443
REMARK  177  A    between atoms: _442  and  _445
REMARK  178  A    between atoms: _445  and  _446
REMARK  179  A    between atoms: _449  and  _451
REMARK  180  A    between atoms: _451  and  _452
REMARK  181  A    between atoms: _451  and  _454
REMARK  182  A    between atoms: _454  and  _455
REMARK  183  A    between atoms: _460  and  _462
REMARK  184  A    between atoms: _462  and  _463
REMARK  185  A    between atoms: _465  and  _467
REMARK  186  A    between atoms: _467  and  _468
REMARK  187  A    between atoms: _467  and  _470
REMARK  188  A    between atoms: _470  and  _471
REMARK  189  A    between atoms: _471  and  _472
REMARK  190  A    between atoms: _472  and  _473
REMARK  191  A    between atoms: _473  and  _474
REMARK  192  A    between atoms: _478  and  _480
REMARK  193  A    between atoms: _480  and  _481
REMARK  194  A    between atoms: _480  and  _483
REMARK  195  A    between atoms: _483  and  _484
REMARK  196  A    between atoms: _484  and  _485
REMARK  197  A    between atoms: _485  and  _486
REMARK  198  A    between atoms: _495  and  _497
REMARK  199  A    between atoms: _497  and  _498
REMARK  200  A    between atoms: _497  and  _500
REMARK  201  A    between atoms: _500  and  _501
REMARK  202  A    between atoms: _506  and  _507
REMARK  203  A    between atoms: _509  and  _511
REMARK  204  A    between atoms: _511  and  _512
REMARK  205  A    between atoms: _511  and  _514
REMARK  206  A    between atoms: _514  and  _515
REMARK  207  A    between atoms: _515  and  _516
REMARK  208  A    between atoms: _516  and  _517
REMARK  209  A    between atoms: _517  and  _518
REMARK  210  A    between atoms: _522  and  _524
REMARK  211  A    between atoms: _524  and  _525
REMARK  212  A    between atoms: _524  and  _527
REMARK  213  A    between atoms: _527  and  _528
REMARK  214  A    between atoms: _530  and  _532
REMARK  215  A    between atoms: _532  and  _533
REMARK  216  A    between atoms: _532  and  _535
REMARK  217  A    between atoms: _535  and  _536
REMARK  218  A    between atoms: _539  and  _541
REMARK  219  A    between atoms: _541  and  _542
REMARK  220  A    between atoms: _541  and  _544
REMARK  221  A    between atoms: _544  and  _545
REMARK  222  A    between atoms: _545  and  _546
REMARK  223  A    between atoms: _549  and  _551
REMARK  224  A    between atoms: _551  and  _552
REMARK  225  A    between atoms: _555  and  _557
REMARK  226  A    between atoms: _557  and  _558
REMARK  227  A    between atoms: _557  and  _560
REMARK  228  A    between atoms: _560  and  _561
REMARK  229  A    between atoms: _563  and  _565
REMARK  230  A    between atoms: _565  and  _566
REMARK  231  A    between atoms: _568  and  _570
REMARK  232  A    between atoms: _570  and  _571
REMARK  233  A    between atoms: _570  and  _573
REMARK  234  A    between atoms: _573  and  _574
REMARK  235  A    between atoms: _577  and  _579
REMARK  236  A    between atoms: _579  and  _580
REMARK  237  A    between atoms: _582  and  _584
REMARK  238  A    between atoms: _584  and  _585
REMARK  239  A    between atoms: _584  and  _587
REMARK  240  A    between atoms: _587  and  _588
REMARK  241  A    between atoms: _593  and  _595
REMARK  242  A    between atoms: _595  and  _596
REMARK  243  A    between atoms: _595  and  _598
REMARK  244  A    between atoms: _598  and  _599
REMARK  245  A    between atoms: _599  and  _600
REMARK  246  A    between atoms: _607  and  _608
REMARK  247  A    between atoms: _608  and  _624
REMARK  248  A    between atoms: _609  and  _611
REMARK  249  A    between atoms: _611  and  _612
REMARK  250  A    between atoms: _612  and  _613
REMARK  251  A    between atoms: _617  and  _619
REMARK  252  A    between atoms: _619  and  _620
REMARK  253  A    between atoms: _619  and  _627
REMARK  254  A    between atoms: _620  and  _621
REMARK  255  A    between atoms: _621  and  _622
REMARK  256  A    between atoms: _622  and  _623
REMARK  257  A    between atoms: _623  and  _624
REMARK  258  A    between atoms: _629  and  _631
REMARK  259  A    between atoms: _631  and  _632
REMARK  260  A    between atoms: _631  and  _634
REMARK  261  A    between atoms: _634  and  _635
REMARK  262  A    between atoms: _638  and  _640
REMARK  263  A    between atoms: _640  and  _641
REMARK  264  A    between atoms: _643  and  _645
REMARK  265  A    between atoms: _645  and  _646
REMARK  266  A    between atoms: _649  and  _651
REMARK  267  A    between atoms: _651  and  _652
REMARK  268  A    between atoms: _651  and  _654
REMARK  269  A    between atoms: _654  and  _655
REMARK  270  A    between atoms: _660  and  _661
REMARK                            x       y       z     vdW  Elec       q    Type
REMARK                         _______ _______ _______ _____ _____    ______ ____
ROOT
ATOM      1  O   HOH     1      40.818  24.493  32.818  0.00  0.00    +0.000 OA
ENDROOT
TORSDOF 0
REMARK  Name = ../refined-set-2016/2qrm/2qrm_pocket.pdb
REMARK  270 active torsions:
REMARK  status: ('A' for Active; 'I' for Inactive)
REMARK    1  A    between atoms: _1  and  _3
REMARK    2  A    between atoms: _3  and  _4
REMARK    3  A    between atoms: _3  and  _6
REMARK    4  A    between atoms: _6  and  _7
REMARK    5  A    between atoms: _12  and  _13
REMARK    6  A    between atoms: _15  and  _17
REMARK    7  A    between atoms: _17  and  _18
REMARK    8  A    between atoms: _17  and  _20
REMARK    9  A    between atoms: _20  and  _21
REMARK   10  A    between atoms: _24  and  _26
REMARK   11  A    between atoms: _26  and  _27
REMARK   12  A    between atoms: _26  and  _29
REMARK   13  A    between atoms: _29  and  _30
REMARK   14  A    between atoms: _30  and  _31
REMARK   15  A    between atoms: _34  and  _36
REMARK   16  A    between atoms: _36  and  _37
REMARK   17  A    between atoms: _39  and  _41
REMARK   18  A    between atoms: _41  and  _42
REMARK   19  A    between atoms: _41  and  _44
REMARK   20  A    between atoms: _44  and  _45
REMARK   21  A    between atoms: _50  and  _52
REMARK   22  A    between atoms: _52  and  _53
REMARK   23  A    between atoms: _55  and  _57
REMARK   24  A    between atoms: _57  and  _58
REMARK   25  A    between atoms: _60  and  _62
REMARK   26  A    between atoms: _62  and  _63
REMARK   27  A    between atoms: _62  and  _65
REMARK   28  A    between atoms: _65  and  _66
REMARK   29  A    between atoms: _69  and  _71
REMARK   30  A    between atoms: _71  and  _72
REMARK   31  A    between atoms: _74  and  _76
REMARK   32  A    between atoms: _76  and  _77
REMARK   33  A    between atoms: _76  and  _79
REMARK   34  A    between atoms: _79  and  _80
REMARK   35  A    between atoms: _80  and  _81
REMARK   36  A    between atoms: _81  and  _82
REMARK   37  A    between atoms: _91  and  _93
REMARK   38  A    between atoms: _93  and  _94
REMARK   39  A    between atoms: _93  and  _96
REMARK   40  A    between atoms: _96  and  _97
REMARK   41  A    between atoms: _100  and  _102
REMARK   42  A    between atoms: _102  and  _103
REMARK   43  A    between atoms: _106  and  _108
REMARK   44  A    between atoms: _108  and  _109
REMARK   45  A    between atoms: _108  and  _111
REMARK   46  A    between atoms: _111  and  _112
REMARK   47  A    between atoms: _118  and  _120
REMARK   48  A    between atoms: _120  and  _121
REMARK   49  A    between atoms: _120  and  _123
REMARK   50  A    between atoms: _123  and  _124
REMARK   51  A    between atoms: _129  and  _130
REMARK   52  A    between atoms: _132  and  _134
REMARK   53  A    between atoms: _134  and  _135
REMARK   54  A    between atoms: _134  and  _137
REMARK   55  A    between atoms: _137  and  _138
REMARK   56  A    between atoms: _141  and  _143
REMARK   57  A    between atoms: _143  and  _144
REMARK   58  A    between atoms: _143  and  _146
REMARK   59  A    between atoms: _146  and  _147
REMARK   60  A    between atoms: _152  and  _153
REMARK   61  A    between atoms: _156  and  _157
REMARK   62  A    between atoms: _162  and  _164
REMARK   63  A    between atoms: _164  and  _165
REMARK   64  A    between atoms: _164  and  _167
REMARK   65  A    between atoms: _167  and  _168
REMARK   66  A    between atoms: _173  and  _175
REMARK   67  A    between atoms: _175  and  _176
REMARK   68  A    between atoms: _175  and  _178
REMARK   69  A    between atoms: _178  and  _179
REMARK   70  A    between atoms: _182  and  _184
REMARK   71  A    between atoms: _184  and  _185
REMARK   72  A    between atoms: _184  and  _187
REMARK   73  A    between atoms: _187  and  _188
REMARK   74  A    between atoms: _193  and  _195
REMARK   75  A    between atoms: _195  and  _196
REMARK   76  A    between atoms: _195  and  _198
REMARK   77  A    between atoms: _198  and  _199
REMARK   78  A    between atoms: _205  and  _207
REMARK   79  A    between atoms: _207  and  _208
REMARK   80  A    between atoms: _207  and  _210
REMARK   81  A    between atoms: _210  and  _211
REMARK   82  A    between atoms: _217  and  _219
REMARK   83  A    between atoms: _219  and  _220
REMARK   84  A    between atoms: _219  and  _222
REMARK   85  A    between atoms: _222  and  _223
REMARK   86  A    between atoms: _223  and  _224
REMARK   87  A    between atoms: _227  and  _229
REMARK   88  A    between atoms: _229  and  _230
REMARK   89  A    between atoms: _229  and  _232
REMARK   90  A    between atoms: _232  and  _233
REMARK   91  A    between atoms: _233  and  _234
REMARK   92  A    between atoms: _234  and  _235
REMARK   93  A    between atoms: _244  and  _246
REMARK   94  A    between atoms: _246  and  _247
REMARK   95  A    between atoms: _246  and  _249
REMARK   96  A    between atoms: _249  and  _250
REMARK   97  A    between atoms: _250  and  _251
REMARK   98  A    between atoms: _254  and  _256
REMARK   99  A    between atoms: _256  and  _257
REMARK  100  A    between atoms: _256  and  _259
REMARK  101  A    between atoms: _259  and  _260
REMARK  102  A    between atoms: _265  and  _267
REMARK  103  A    between atoms: _267  and  _268
REMARK  104  A    between atoms: _267  and  _270
REMARK  105  A    between atoms: _270  and  _271
REMARK  106  A    between atoms: _274  and  _276
REMARK  107  A    between atoms: _276  and  _277
REMARK  108  A    between atoms: _276  and  _279
REMARK  109  A    between atoms: _279  and  _280
REMARK  110  A    between atoms: _283  and  _285
REMARK  111  A    between atoms: _285  and  _286
REMARK  112  A    between atoms: _285  and  _288
REMARK  113  A    between atoms: _288  and  _289
REMARK  114  A    between atoms: _294  and  _296
REMARK  115  A    between atoms: _296  and  _297
REMARK  116  A    between atoms: _296  and  _299
REMARK  117  A    between atoms: _299  and  _300
REMARK  118  A    between atoms: _303  and  _305
REMARK  119  A    between atoms: _305  and  _306
REMARK  120  A    between atoms: _305  and  _308
REMARK  121  A    between atoms: _308  and  _309
REMARK  122  A    between atoms: _314  and  _316
REMARK  123  A    between atoms: _316  and  _317
REMARK  124  A    between atoms: _316  and  _319
REMARK  125  A    between atoms: _319  and  _320
REMARK  126  A    between atoms: _325  and  _327
REMARK  127  A    between atoms: _327  and  _328
REMARK  128  A    between atoms: _327  and  _330
REMARK  129  A    between atoms: _330  and  _331
REMARK  130  A    between atoms: _334  and  _336
REMARK  131  A    between atoms: _336  and  _337
REMARK  132  A    between atoms: _336  and  _339
REMARK  133  A    between atoms: _342  and  _344
REMARK  134  A    between atoms: _344  and  _345
REMARK  135  A    between atoms: _344  and  _347
REMARK  136  A    between atoms: _347  and  _348
REMARK  137  A    between atoms: _351  and  _353
REMARK  138  A    between atoms: _353  and  _354
REMARK  139  A    between atoms: _353  and  _356
REMARK  140  A    between atoms: _356  and  _357
REMARK  141  A    between atoms: _357  and  _358
REMARK  142  A    between atoms: _361  and  _363
REMARK  143  A    between atoms: _363  and  _364
REMARK  144  A    between atoms: _367  and  _369
REMARK  145  A    between atoms: _369  and  _370
REMARK  146  A    between atoms: _369  and  _372
REMARK  147  A    between atoms: _372  and  _373
REMARK  148  A    between atoms: _376  and  _378
REMARK  149  A    between atoms: _378  and  _379
REMARK  150  A    between atoms: _378  and  _381
REMARK  151  A    between atoms: _381  and  _382
REMARK  152  A    between atoms: _382  and  _383
REMARK  153  A    between atoms: _386  and  _388
REMARK  154  A    between atoms: _388  and  _389
REMARK  155  A    between atoms: _388  and  _391
REMARK  156  A    between atoms: _391  and  _392
REMARK  157  A    between atoms: _397  and  _399
REMARK  158  A    between atoms: _399  and  _400
REMARK  159  A    between atoms: _402  and  _404
REMARK  160  A    between atoms: _404  and  _405
REMARK  161  A    between atoms: _404  and  _407
REMARK  162  A    between atoms: _410  and  _412
REMARK  163  A    between atoms: _412  and  _413
REMARK  164  A    between atoms: _416  and  _418
REMARK  165  A    between atoms: _418  and  _419
REMARK  166  A    between atoms: _418  and  _421
REMARK  167  A    between atoms: _421  and  _422
REMARK  168  A    between atoms: _427  and  _429
REMARK  169  A    between atoms: _429  and  _430
REMARK  170  A    between atoms: _429  and  _432
REMARK  171  A    between atoms: _432  and  _433
REMARK  172  A    between atoms: _433  and  _434
REMARK  173  A    between atoms: _434  and  _435
REMARK  174  A    between atoms: _435  and  _436
REMARK  175  A    between atoms: _440  and  _442
REMARK  176  A    between atoms: _442  and  _443
REMARK  177  A    between atoms: _442  and  _445
REMARK  178  A    between atoms: _445  and  _446
REMARK  179  A    between atoms: _449  and  _451
REMARK  180  A    between atoms: _451  and  _452
REMARK  181  A    between atoms: _451  and  _454
REMARK  182  A    between atoms: _454  and  _455
REMARK  183  A    between atoms: _460  and  _462
REMARK  184  A    between atoms: _462  and  _463
REMARK  185  A    between atoms: _465  and  _467
REMARK  186  A    between atoms: _467  and  _468
REMARK  187  A    between atoms: _467  and  _470
REMARK  188  A    between atoms: _470  and  _471
REMARK  189  A    between atoms: _471  and  _472
REMARK  190  A    between atoms: _472  and  _473
REMARK  191  A    between atoms: _473  and  _474
REMARK  192  A    between atoms: _478  and  _480
REMARK  193  A    between atoms: _480  and  _481
REMARK  194  A    between atoms: _480  and  _483
REMARK  195  A    between atoms: _483  and  _484
REMARK  196  A    between atoms: _484  and  _485
REMARK  197  A    between atoms: _485  and  _486
REMARK  198  A    between atoms: _495  and  _497
REMARK  199  A    between atoms: _497  and  _498
REMARK  200  A    between atoms: _497  and  _500
REMARK  201  A    between atoms: _500  and  _501
REMARK  202  A    between atoms: _506  and  _507
REMARK  203  A    between atoms: _509  and  _511
REMARK  204  A    between atoms: _511  and  _512
REMARK  205  A    between atoms: _511  and  _514
REMARK  206  A    between atoms: _514  and  _515
REMARK  207  A    between atoms: _515  and  _516
REMARK  208  A    between atoms: _516  and  _517
REMARK  209  A    between atoms: _517  and  _518
REMARK  210  A    between atoms: _522  and  _524
REMARK  211  A    between atoms: _524  and  _525
REMARK  212  A    between atoms: _524  and  _527
REMARK  213  A    between atoms: _527  and  _528
REMARK  214  A    between atoms: _530  and  _532
REMARK  215  A    between atoms: _532  and  _533
REMARK  216  A    between atoms: _532  and  _535
REMARK  217  A    between atoms: _535  and  _536
REMARK  218  A    between atoms: _539  and  _541
REMARK  219  A    between atoms: _541  and  _542
REMARK  220  A    between atoms: _541  and  _544
REMARK  221  A    between atoms: _544  and  _545
REMARK  222  A    between atoms: _545  and  _546
REMARK  223  A    between atoms: _549  and  _551
REMARK  224  A    between atoms: _551  and  _552
REMARK  225  A    between atoms: _555  and  _557
REMARK  226  A    between atoms: _557  and  _558
REMARK  227  A    between atoms: _557  and  _560
REMARK  228  A    between atoms: _560  and  _561
REMARK  229  A    between atoms: _563  and  _565
REMARK  230  A    between atoms: _565  and  _566
REMARK  231  A    between atoms: _568  and  _570
REMARK  232  A    between atoms: _570  and  _571
REMARK  233  A    between atoms: _570  and  _573
REMARK  234  A    between atoms: _573  and  _574
REMARK  235  A    between atoms: _577  and  _579
REMARK  236  A    between atoms: _579  and  _580
REMARK  237  A    between atoms: _582  and  _584
REMARK  238  A    between atoms: _584  and  _585
REMARK  239  A    between atoms: _584  and  _587
REMARK  240  A    between atoms: _587  and  _588
REMARK  241  A    between atoms: _593  and  _595
REMARK  242  A    between atoms: _595  and  _596
REMARK  243  A    between atoms: _595  and  _598
REMARK  244  A    between atoms: _598  and  _599
REMARK  245  A    between atoms: _599  and  _600
REMARK  246  A    between atoms: _607  and  _608
REMARK  247  A    between atoms: _608  and  _624
REMARK  248  A    between atoms: _609  and  _611
REMARK  249  A    between atoms: _611  and  _612
REMARK  250  A    between atoms: _612  and  _613
REMARK  251  A    between atoms: _617  and  _619
REMARK  252  A    between atoms: _619  and  _620
REMARK  253  A    between atoms: _619  and  _627
REMARK  254  A    between atoms: _620  and  _621
REMARK  255  A    between atoms: _621  and  _622
REMARK  256  A    between atoms: _622  and  _623
REMARK  257  A    between atoms: _623  and  _624
REMARK  258  A    between atoms: _629  and  _631
REMARK  259  A    between atoms: _631  and  _632
REMARK  260  A    between atoms: _631  and  _634
REMARK  261  A    between atoms: _634  and  _635
REMARK  262  A    between atoms: _638  and  _640
REMARK  263  A    between atoms: _640  and  _641
REMARK  264  A    between atoms: _643  and  _645
REMARK  265  A    between atoms: _645  and  _646
REMARK  266  A    between atoms: _649  and  _651
REMARK  267  A    between atoms: _651  and  _652
REMARK  268  A    between atoms: _651  and  _654
REMARK  269  A    between atoms: _654  and  _655
REMARK  270  A    between atoms: _660  and  _661
REMARK                            x       y       z     vdW  Elec       q    Type
REMARK                         _______ _______ _______ _____ _____    ______ ____
ROOT
ATOM      1  O   HOH     1      36.057  28.436  37.228  0.00  0.00    +0.000 OA
ENDROOT
TORSDOF 0
REMARK  Name = ../refined-set-2016/2qrm/2qrm_pocket.pdb
REMARK  270 active torsions:
REMARK  status: ('A' for Active; 'I' for Inactive)
REMARK    1  A    between atoms: _1  and  _3
REMARK    2  A    between atoms: _3  and  _4
REMARK    3  A    between atoms: _3  and  _6
REMARK    4  A    between atoms: _6  and  _7
REMARK    5  A    between atoms: _12  and  _13
REMARK    6  A    between atoms: _15  and  _17
REMARK    7  A    between atoms: _17  and  _18
REMARK    8  A    between atoms: _17  and  _20
REMARK    9  A    between atoms: _20  and  _21
REMARK   10  A    between atoms: _24  and  _26
REMARK   11  A    between atoms: _26  and  _27
REMARK   12  A    between atoms: _26  and  _29
REMARK   13  A    between atoms: _29  and  _30
REMARK   14  A    between atoms: _30  and  _31
REMARK   15  A    between atoms: _34  and  _36
REMARK   16  A    between atoms: _36  and  _37
REMARK   17  A    between atoms: _39  and  _41
REMARK   18  A    between atoms: _41  and  _42
REMARK   19  A    between atoms: _41  and  _44
REMARK   20  A    between atoms: _44  and  _45
REMARK   21  A    between atoms: _50  and  _52
REMARK   22  A    between atoms: _52  and  _53
REMARK   23  A    between atoms: _55  and  _57
REMARK   24  A    between atoms: _57  and  _58
REMARK   25  A    between atoms: _60  and  _62
REMARK   26  A    between atoms: _62  and  _63
REMARK   27  A    between atoms: _62  and  _65
REMARK   28  A    between atoms: _65  and  _66
REMARK   29  A    between atoms: _69  and  _71
REMARK   30  A    between atoms: _71  and  _72
REMARK   31  A    between atoms: _74  and  _76
REMARK   32  A    between atoms: _76  and  _77
REMARK   33  A    between atoms: _76  and  _79
REMARK   34  A    between atoms: _79  and  _80
REMARK   35  A    between atoms: _80  and  _81
REMARK   36  A    between atoms: _81  and  _82
REMARK   37  A    between atoms: _91  and  _93
REMARK   38  A    between atoms: _93  and  _94
REMARK   39  A    between atoms: _93  and  _96
REMARK   40  A    between atoms: _96  and  _97
REMARK   41  A    between atoms: _100  and  _102
REMARK   42  A    between atoms: _102  and  _103
REMARK   43  A    between atoms: _106  and  _108
REMARK   44  A    between atoms: _108  and  _109
REMARK   45  A    between atoms: _108  and  _111
REMARK   46  A    between atoms: _111  and  _112
REMARK   47  A    between atoms: _118  and  _120
REMARK   48  A    between atoms: _120  and  _121
REMARK   49  A    between atoms: _120  and  _123
REMARK   50  A    between atoms: _123  and  _124
REMARK   51  A    between atoms: _129  and  _130
REMARK   52  A    between atoms: _132  and  _134
REMARK   53  A    between atoms: _134  and  _135
REMARK   54  A    between atoms: _134  and  _137
REMARK   55  A    between atoms: _137  and  _138
REMARK   56  A    between atoms: _141  and  _143
REMARK   57  A    between atoms: _143  and  _144
REMARK   58  A    between atoms: _143  and  _146
REMARK   59  A    between atoms: _146  and  _147
REMARK   60  A    between atoms: _152  and  _153
REMARK   61  A    between atoms: _156  and  _157
REMARK   62  A    between atoms: _162  and  _164
REMARK   63  A    between atoms: _164  and  _165
REMARK   64  A    between atoms: _164  and  _167
REMARK   65  A    between atoms: _167  and  _168
REMARK   66  A    between atoms: _173  and  _175
REMARK   67  A    between atoms: _175  and  _176
REMARK   68  A    between atoms: _175  and  _178
REMARK   69  A    between atoms: _178  and  _179
REMARK   70  A    between atoms: _182  and  _184
REMARK   71  A    between atoms: _184  and  _185
REMARK   72  A    between atoms: _184  and  _187
REMARK   73  A    between atoms: _187  and  _188
REMARK   74  A    between atoms: _193  and  _195
REMARK   75  A    between atoms: _195  and  _196
REMARK   76  A    between atoms: _195  and  _198
REMARK   77  A    between atoms: _198  and  _199
REMARK   78  A    between atoms: _205  and  _207
REMARK   79  A    between atoms: _207  and  _208
REMARK   80  A    between atoms: _207  and  _210
REMARK   81  A    between atoms: _210  and  _211
REMARK   82  A    between atoms: _217  and  _219
REMARK   83  A    between atoms: _219  and  _220
REMARK   84  A    between atoms: _219  and  _222
REMARK   85  A    between atoms: _222  and  _223
REMARK   86  A    between atoms: _223  and  _224
REMARK   87  A    between atoms: _227  and  _229
REMARK   88  A    between atoms: _229  and  _230
REMARK   89  A    between atoms: _229  and  _232
REMARK   90  A    between atoms: _232  and  _233
REMARK   91  A    between atoms: _233  and  _234
REMARK   92  A    between atoms: _234  and  _235
REMARK   93  A    between atoms: _244  and  _246
REMARK   94  A    between atoms: _246  and  _247
REMARK   95  A    between atoms: _246  and  _249
REMARK   96  A    between atoms: _249  and  _250
REMARK   97  A    between atoms: _250  and  _251
REMARK   98  A    between atoms: _254  and  _256
REMARK   99  A    between atoms: _256  and  _257
REMARK  100  A    between atoms: _256  and  _259
REMARK  101  A    between atoms: _259  and  _260
REMARK  102  A    between atoms: _265  and  _267
REMARK  103  A    between atoms: _267  and  _268
REMARK  104  A    between atoms: _267  and  _270
REMARK  105  A    between atoms: _270  and  _271
REMARK  106  A    between atoms: _274  and  _276
REMARK  107  A    between atoms: _276  and  _277
REMARK  108  A    between atoms: _276  and  _279
REMARK  109  A    between atoms: _279  and  _280
REMARK  110  A    between atoms: _283  and  _285
REMARK  111  A    between atoms: _285  and  _286
REMARK  112  A    between atoms: _285  and  _288
REMARK  113  A    between atoms: _288  and  _289
REMARK  114  A    between atoms: _294  and  _296
REMARK  115  A    between atoms: _296  and  _297
REMARK  116  A    between atoms: _296  and  _299
REMARK  117  A    between atoms: _299  and  _300
REMARK  118  A    between atoms: _303  and  _305
REMARK  119  A    between atoms: _305  and  _306
REMARK  120  A    between atoms: _305  and  _308
REMARK  121  A    between atoms: _308  and  _309
REMARK  122  A    between atoms: _314  and  _316
REMARK  123  A    between atoms: _316  and  _317
REMARK  124  A    between atoms: _316  and  _319
REMARK  125  A    between atoms: _319  and  _320
REMARK  126  A    between atoms: _325  and  _327
REMARK  127  A    between atoms: _327  and  _328
REMARK  128  A    between atoms: _327  and  _330
REMARK  129  A    between atoms: _330  and  _331
REMARK  130  A    between atoms: _334  and  _336
REMARK  131  A    between atoms: _336  and  _337
REMARK  132  A    between atoms: _336  and  _339
REMARK  133  A    between atoms: _342  and  _344
REMARK  134  A    between atoms: _344  and  _345
REMARK  135  A    between atoms: _344  and  _347
REMARK  136  A    between atoms: _347  and  _348
REMARK  137  A    between atoms: _351  and  _353
REMARK  138  A    between atoms: _353  and  _354
REMARK  139  A    between atoms: _353  and  _356
REMARK  140  A    between atoms: _356  and  _357
REMARK  141  A    between atoms: _357  and  _358
REMARK  142  A    between atoms: _361  and  _363
REMARK  143  A    between atoms: _363  and  _364
REMARK  144  A    between atoms: _367  and  _369
REMARK  145  A    between atoms: _369  and  _370
REMARK  146  A    between atoms: _369  and  _372
REMARK  147  A    between atoms: _372  and  _373
REMARK  148  A    between atoms: _376  and  _378
REMARK  149  A    between atoms: _378  and  _379
REMARK  150  A    between atoms: _378  and  _381
REMARK  151  A    between atoms: _381  and  _382
REMARK  152  A    between atoms: _382  and  _383
REMARK  153  A    between atoms: _386  and  _388
REMARK  154  A    between atoms: _388  and  _389
REMARK  155  A    between atoms: _388  and  _391
REMARK  156  A    between atoms: _391  and  _392
REMARK  157  A    between atoms: _397  and  _399
REMARK  158  A    between atoms: _399  and  _400
REMARK  159  A    between atoms: _402  and  _404
REMARK  160  A    between atoms: _404  and  _405
REMARK  161  A    between atoms: _404  and  _407
REMARK  162  A    between atoms: _410  and  _412
REMARK  163  A    between atoms: _412  and  _413
REMARK  164  A    between atoms: _416  and  _418
REMARK  165  A    between atoms: _418  and  _419
REMARK  166  A    between atoms: _418  and  _421
REMARK  167  A    between atoms: _421  and  _422
REMARK  168  A    between atoms: _427  and  _429
REMARK  169  A    between atoms: _429  and  _430
REMARK  170  A    between atoms: _429  and  _432
REMARK  171  A    between atoms: _432  and  _433
REMARK  172  A    between atoms: _433  and  _434
REMARK  173  A    between atoms: _434  and  _435
REMARK  174  A    between atoms: _435  and  _436
REMARK  175  A    between atoms: _440  and  _442
REMARK  176  A    between atoms: _442  and  _443
REMARK  177  A    between atoms: _442  and  _445
REMARK  178  A    between atoms: _445  and  _446
REMARK  179  A    between atoms: _449  and  _451
REMARK  180  A    between atoms: _451  and  _452
REMARK  181  A    between atoms: _451  and  _454
REMARK  182  A    between atoms: _454  and  _455
REMARK  183  A    between atoms: _460  and  _462
REMARK  184  A    between atoms: _462  and  _463
REMARK  185  A    between atoms: _465  and  _467
REMARK  186  A    between atoms: _467  and  _468
REMARK  187  A    between atoms: _467  and  _470
REMARK  188  A    between atoms: _470  and  _471
REMARK  189  A    between atoms: _471  and  _472
REMARK  190  A    between atoms: _472  and  _473
REMARK  191  A    between atoms: _473  and  _474
REMARK  192  A    between atoms: _478  and  _480
REMARK  193  A    between atoms: _480  and  _481
REMARK  194  A    between atoms: _480  and  _483
REMARK  195  A    between atoms: _483  and  _484
REMARK  196  A    between atoms: _484  and  _485
REMARK  197  A    between atoms: _485  and  _486
REMARK  198  A    between atoms: _495  and  _497
REMARK  199  A    between atoms: _497  and  _498
REMARK  200  A    between atoms: _497  and  _500
REMARK  201  A    between atoms: _500  and  _501
REMARK  202  A    between atoms: _506  and  _507
REMARK  203  A    between atoms: _509  and  _511
REMARK  204  A    between atoms: _511  and  _512
REMARK  205  A    between atoms: _511  and  _514
REMARK  206  A    between atoms: _514  and  _515
REMARK  207  A    between atoms: _515  and  _516
REMARK  208  A    between atoms: _516  and  _517
REMARK  209  A    between atoms: _517  and  _518
REMARK  210  A    between atoms: _522  and  _524
REMARK  211  A    between atoms: _524  and  _525
REMARK  212  A    between atoms: _524  and  _527
REMARK  213  A    between atoms: _527  and  _528
REMARK  214  A    between atoms: _530  and  _532
REMARK  215  A    between atoms: _532  and  _533
REMARK  216  A    between atoms: _532  and  _535
REMARK  217  A    between atoms: _535  and  _536
REMARK  218  A    between atoms: _539  and  _541
REMARK  219  A    between atoms: _541  and  _542
REMARK  220  A    between atoms: _541  and  _544
REMARK  221  A    between atoms: _544  and  _545
REMARK  222  A    between atoms: _545  and  _546
REMARK  223  A    between atoms: _549  and  _551
REMARK  224  A    between atoms: _551  and  _552
REMARK  225  A    between atoms: _555  and  _557
REMARK  226  A    between atoms: _557  and  _558
REMARK  227  A    between atoms: _557  and  _560
REMARK  228  A    between atoms: _560  and  _561
REMARK  229  A    between atoms: _563  and  _565
REMARK  230  A    between atoms: _565  and  _566
REMARK  231  A    between atoms: _568  and  _570
REMARK  232  A    between atoms: _570  and  _571
REMARK  233  A    between atoms: _570  and  _573
REMARK  234  A    between atoms: _573  and  _574
REMARK  235  A    between atoms: _577  and  _579
REMARK  236  A    between atoms: _579  and  _580
REMARK  237  A    between atoms: _582  and  _584
REMARK  238  A    between atoms: _584  and  _585
REMARK  239  A    between atoms: _584  and  _587
REMARK  240  A    between atoms: _587  and  _588
REMARK  241  A    between atoms: _593  and  _595
REMARK  242  A    between atoms: _595  and  _596
REMARK  243  A    between atoms: _595  and  _598
REMARK  244  A    between atoms: _598  and  _599
REMARK  245  A    between atoms: _599  and  _600
REMARK  246  A    between atoms: _607  and  _608
REMARK  247  A    between atoms: _608  and  _624
REMARK  248  A    between atoms: _609  and  _611
REMARK  249  A    between atoms: _611  and  _612
REMARK  250  A    between atoms: _612  and  _613
REMARK  251  A    between atoms: _617  and  _619
REMARK  252  A    between atoms: _619  and  _620
REMARK  253  A    between atoms: _619  and  _627
REMARK  254  A    between atoms: _620  and  _621
REMARK  255  A    between atoms: _621  and  _622
REMARK  256  A    between atoms: _622  and  _623
REMARK  257  A    between atoms: _623  and  _624
REMARK  258  A    between atoms: _629  and  _631
REMARK  259  A    between atoms: _631  and  _632
REMARK  260  A    between atoms: _631  and  _634
REMARK  261  A    between atoms: _634  and  _635
REMARK  262  A    between atoms: _638  and  _640
REMARK  263  A    between atoms: _640  and  _641
REMARK  264  A    between atoms: _643  and  _645
REMARK  265  A    between atoms: _645  and  _646
REMARK  266  A    between atoms: _649  and  _651
REMARK  267  A    between atoms: _651  and  _652
REMARK  268  A    between atoms: _651  and  _654
REMARK  269  A    between atoms: _654  and  _655
REMARK  270  A    between atoms: _660  and  _661
REMARK                            x       y       z     vdW  Elec       q    Type
REMARK                         _______ _______ _______ _____ _____    ______ ____
ROOT
ATOM      1  O   HOH     1      32.669  31.044  28.457  0.00  0.00    +0.000 OA
ENDROOT
TORSDOF 0
REMARK  Name = ../refined-set-2016/2qrm/2qrm_pocket.pdb
REMARK  270 active torsions:
REMARK  status: ('A' for Active; 'I' for Inactive)
REMARK    1  A    between atoms: _1  and  _3
REMARK    2  A    between atoms: _3  and  _4
REMARK    3  A    between atoms: _3  and  _6
REMARK    4  A    between atoms: _6  and  _7
REMARK    5  A    between atoms: _12  and  _13
REMARK    6  A    between atoms: _15  and  _17
REMARK    7  A    between atoms: _17  and  _18
REMARK    8  A    between atoms: _17  and  _20
REMARK    9  A    between atoms: _20  and  _21
REMARK   10  A    between atoms: _24  and  _26
REMARK   11  A    between atoms: _26  and  _27
REMARK   12  A    between atoms: _26  and  _29
REMARK   13  A    between atoms: _29  and  _30
REMARK   14  A    between atoms: _30  and  _31
REMARK   15  A    between atoms: _34  and  _36
REMARK   16  A    between atoms: _36  and  _37
REMARK   17  A    between atoms: _39  and  _41
REMARK   18  A    between atoms: _41  and  _42
REMARK   19  A    between atoms: _41  and  _44
REMARK   20  A    between atoms: _44  and  _45
REMARK   21  A    between atoms: _50  and  _52
REMARK   22  A    between atoms: _52  and  _53
REMARK   23  A    between atoms: _55  and  _57
REMARK   24  A    between atoms: _57  and  _58
REMARK   25  A    between atoms: _60  and  _62
REMARK   26  A    between atoms: _62  and  _63
REMARK   27  A    between atoms: _62  and  _65
REMARK   28  A    between atoms: _65  and  _66
REMARK   29  A    between atoms: _69  and  _71
REMARK   30  A    between atoms: _71  and  _72
REMARK   31  A    between atoms: _74  and  _76
REMARK   32  A    between atoms: _76  and  _77
REMARK   33  A    between atoms: _76  and  _79
REMARK   34  A    between atoms: _79  and  _80
REMARK   35  A    between atoms: _80  and  _81
REMARK   36  A    between atoms: _81  and  _82
REMARK   37  A    between atoms: _91  and  _93
REMARK   38  A    between atoms: _93  and  _94
REMARK   39  A    between atoms: _93  and  _96
REMARK   40  A    between atoms: _96  and  _97
REMARK   41  A    between atoms: _100  and  _102
REMARK   42  A    between atoms: _102  and  _103
REMARK   43  A    between atoms: _106  and  _108
REMARK   44  A    between atoms: _108  and  _109
REMARK   45  A    between atoms: _108  and  _111
REMARK   46  A    between atoms: _111  and  _112
REMARK   47  A    between atoms: _118  and  _120
REMARK   48  A    between atoms: _120  and  _121
REMARK   49  A    between atoms: _120  and  _123
REMARK   50  A    between atoms: _123  and  _124
REMARK   51  A    between atoms: _129  and  _130
REMARK   52  A    between atoms: _132  and  _134
REMARK   53  A    between atoms: _134  and  _135
REMARK   54  A    between atoms: _134  and  _137
REMARK   55  A    between atoms: _137  and  _138
REMARK   56  A    between atoms: _141  and  _143
REMARK   57  A    between atoms: _143  and  _144
REMARK   58  A    between atoms: _143  and  _146
REMARK   59  A    between atoms: _146  and  _147
REMARK   60  A    between atoms: _152  and  _153
REMARK   61  A    between atoms: _156  and  _157
REMARK   62  A    between atoms: _162  and  _164
REMARK   63  A    between atoms: _164  and  _165
REMARK   64  A    between atoms: _164  and  _167
REMARK   65  A    between atoms: _167  and  _168
REMARK   66  A    between atoms: _173  and  _175
REMARK   67  A    between atoms: _175  and  _176
REMARK   68  A    between atoms: _175  and  _178
REMARK   69  A    between atoms: _178  and  _179
REMARK   70  A    between atoms: _182  and  _184
REMARK   71  A    between atoms: _184  and  _185
REMARK   72  A    between atoms: _184  and  _187
REMARK   73  A    between atoms: _187  and  _188
REMARK   74  A    between atoms: _193  and  _195
REMARK   75  A    between atoms: _195  and  _196
REMARK   76  A    between atoms: _195  and  _198
REMARK   77  A    between atoms: _198  and  _199
REMARK   78  A    between atoms: _205  and  _207
REMARK   79  A    between atoms: _207  and  _208
REMARK   80  A    between atoms: _207  and  _210
REMARK   81  A    between atoms: _210  and  _211
REMARK   82  A    between atoms: _217  and  _219
REMARK   83  A    between atoms: _219  and  _220
REMARK   84  A    between atoms: _219  and  _222
REMARK   85  A    between atoms: _222  and  _223
REMARK   86  A    between atoms: _223  and  _224
REMARK   87  A    between atoms: _227  and  _229
REMARK   88  A    between atoms: _229  and  _230
REMARK   89  A    between atoms: _229  and  _232
REMARK   90  A    between atoms: _232  and  _233
REMARK   91  A    between atoms: _233  and  _234
REMARK   92  A    between atoms: _234  and  _235
REMARK   93  A    between atoms: _244  and  _246
REMARK   94  A    between atoms: _246  and  _247
REMARK   95  A    between atoms: _246  and  _249
REMARK   96  A    between atoms: _249  and  _250
REMARK   97  A    between atoms: _250  and  _251
REMARK   98  A    between atoms: _254  and  _256
REMARK   99  A    between atoms: _256  and  _257
REMARK  100  A    between atoms: _256  and  _259
REMARK  101  A    between atoms: _259  and  _260
REMARK  102  A    between atoms: _265  and  _267
REMARK  103  A    between atoms: _267  and  _268
REMARK  104  A    between atoms: _267  and  _270
REMARK  105  A    between atoms: _270  and  _271
REMARK  106  A    between atoms: _274  and  _276
REMARK  107  A    between atoms: _276  and  _277
REMARK  108  A    between atoms: _276  and  _279
REMARK  109  A    between atoms: _279  and  _280
REMARK  110  A    between atoms: _283  and  _285
REMARK  111  A    between atoms: _285  and  _286
REMARK  112  A    between atoms: _285  and  _288
REMARK  113  A    between atoms: _288  and  _289
REMARK  114  A    between atoms: _294  and  _296
REMARK  115  A    between atoms: _296  and  _297
REMARK  116  A    between atoms: _296  and  _299
REMARK  117  A    between atoms: _299  and  _300
REMARK  118  A    between atoms: _303  and  _305
REMARK  119  A    between atoms: _305  and  _306
REMARK  120  A    between atoms: _305  and  _308
REMARK  121  A    between atoms: _308  and  _309
REMARK  122  A    between atoms: _314  and  _316
REMARK  123  A    between atoms: _316  and  _317
REMARK  124  A    between atoms: _316  and  _319
REMARK  125  A    between atoms: _319  and  _320
REMARK  126  A    between atoms: _325  and  _327
REMARK  127  A    between atoms: _327  and  _328
REMARK  128  A    between atoms: _327  and  _330
REMARK  129  A    between atoms: _330  and  _331
REMARK  130  A    between atoms: _334  and  _336
REMARK  131  A    between atoms: _336  and  _337
REMARK  132  A    between atoms: _336  and  _339
REMARK  133  A    between atoms: _342  and  _344
REMARK  134  A    between atoms: _344  and  _345
REMARK  135  A    between atoms: _344  and  _347
REMARK  136  A    between atoms: _347  and  _348
REMARK  137  A    between atoms: _351  and  _353
REMARK  138  A    between atoms: _353  and  _354
REMARK  139  A    between atoms: _353  and  _356
REMARK  140  A    between atoms: _356  and  _357
REMARK  141  A    between atoms: _357  and  _358
REMARK  142  A    between atoms: _361  and  _363
REMARK  143  A    between atoms: _363  and  _364
REMARK  144  A    between atoms: _367  and  _369
REMARK  145  A    between atoms: _369  and  _370
REMARK  146  A    between atoms: _369  and  _372
REMARK  147  A    between atoms: _372  and  _373
REMARK  148  A    between atoms: _376  and  _378
REMARK  149  A    between atoms: _378  and  _379
REMARK  150  A    between atoms: _378  and  _381
REMARK  151  A    between atoms: _381  and  _382
REMARK  152  A    between atoms: _382  and  _383
REMARK  153  A    between atoms: _386  and  _388
REMARK  154  A    between atoms: _388  and  _389
REMARK  155  A    between atoms: _388  and  _391
REMARK  156  A    between atoms: _391  and  _392
REMARK  157  A    between atoms: _397  and  _399
REMARK  158  A    between atoms: _399  and  _400
REMARK  159  A    between atoms: _402  and  _404
REMARK  160  A    between atoms: _404  and  _405
REMARK  161  A    between atoms: _404  and  _407
REMARK  162  A    between atoms: _410  and  _412
REMARK  163  A    between atoms: _412  and  _413
REMARK  164  A    between atoms: _416  and  _418
REMARK  165  A    between atoms: _418  and  _419
REMARK  166  A    between atoms: _418  and  _421
REMARK  167  A    between atoms: _421  and  _422
REMARK  168  A    between atoms: _427  and  _429
REMARK  169  A    between atoms: _429  and  _430
REMARK  170  A    between atoms: _429  and  _432
REMARK  171  A    between atoms: _432  and  _433
REMARK  172  A    between atoms: _433  and  _434
REMARK  173  A    between atoms: _434  and  _435
REMARK  174  A    between atoms: _435  and  _436
REMARK  175  A    between atoms: _440  and  _442
REMARK  176  A    between atoms: _442  and  _443
REMARK  177  A    between atoms: _442  and  _445
REMARK  178  A    between atoms: _445  and  _446
REMARK  179  A    between atoms: _449  and  _451
REMARK  180  A    between atoms: _451  and  _452
REMARK  181  A    between atoms: _451  and  _454
REMARK  182  A    between atoms: _454  and  _455
REMARK  183  A    between atoms: _460  and  _462
REMARK  184  A    between atoms: _462  and  _463
REMARK  185  A    between atoms: _465  and  _467
REMARK  186  A    between atoms: _467  and  _468
REMARK  187  A    between atoms: _467  and  _470
REMARK  188  A    between atoms: _470  and  _471
REMARK  189  A    between atoms: _471  and  _472
REMARK  190  A    between atoms: _472  and  _473
REMARK  191  A    between atoms: _473  and  _474
REMARK  192  A    between atoms: _478  and  _480
REMARK  193  A    between atoms: _480  and  _481
REMARK  194  A    between atoms: _480  and  _483
REMARK  195  A    between atoms: _483  and  _484
REMARK  196  A    between atoms: _484  and  _485
REMARK  197  A    between atoms: _485  and  _486
REMARK  198  A    between atoms: _495  and  _497
REMARK  199  A    between atoms: _497  and  _498
REMARK  200  A    between atoms: _497  and  _500
REMARK  201  A    between atoms: _500  and  _501
REMARK  202  A    between atoms: _506  and  _507
REMARK  203  A    between atoms: _509  and  _511
REMARK  204  A    between atoms: _511  and  _512
REMARK  205  A    between atoms: _511  and  _514
REMARK  206  A    between atoms: _514  and  _515
REMARK  207  A    between atoms: _515  and  _516
REMARK  208  A    between atoms: _516  and  _517
REMARK  209  A    between atoms: _517  and  _518
REMARK  210  A    between atoms: _522  and  _524
REMARK  211  A    between atoms: _524  and  _525
REMARK  212  A    between atoms: _524  and  _527
REMARK  213  A    between atoms: _527  and  _528
REMARK  214  A    between atoms: _530  and  _532
REMARK  215  A    between atoms: _532  and  _533
REMARK  216  A    between atoms: _532  and  _535
REMARK  217  A    between atoms: _535  and  _536
REMARK  218  A    between atoms: _539  and  _541
REMARK  219  A    between atoms: _541  and  _542
REMARK  220  A    between atoms: _541  and  _544
REMARK  221  A    between atoms: _544  and  _545
REMARK  222  A    between atoms: _545  and  _546
REMARK  223  A    between atoms: _549  and  _551
REMARK  224  A    between atoms: _551  and  _552
REMARK  225  A    between atoms: _555  and  _557
REMARK  226  A    between atoms: _557  and  _558
REMARK  227  A    between atoms: _557  and  _560
REMARK  228  A    between atoms: _560  and  _561
REMARK  229  A    between atoms: _563  and  _565
REMARK  230  A    between atoms: _565  and  _566
REMARK  231  A    between atoms: _568  and  _570
REMARK  232  A    between atoms: _570  and  _571
REMARK  233  A    between atoms: _570  and  _573
REMARK  234  A    between atoms: _573  and  _574
REMARK  235  A    between atoms: _577  and  _579
REMARK  236  A    between atoms: _579  and  _580
REMARK  237  A    between atoms: _582  and  _584
REMARK  238  A    between atoms: _584  and  _585
REMARK  239  A    between atoms: _584  and  _587
REMARK  240  A    between atoms: _587  and  _588
REMARK  241  A    between atoms: _593  and  _595
REMARK  242  A    between atoms: _595  and  _596
REMARK  243  A    between atoms: _595  and  _598
REMARK  244  A    between atoms: _598  and  _599
REMARK  245  A    between atoms: _599  and  _600
REMARK  246  A    between atoms: _607  and  _608
REMARK  247  A    between atoms: _608  and  _624
REMARK  248  A    between atoms: _609  and  _611
REMARK  249  A    between atoms: _611  and  _612
REMARK  250  A    between atoms: _612  and  _613
REMARK  251  A    between atoms: _617  and  _619
REMARK  252  A    between atoms: _619  and  _620
REMARK  253  A    between atoms: _619  and  _627
REMARK  254  A    between atoms: _620  and  _621
REMARK  255  A    between atoms: _621  and  _622
REMARK  256  A    between atoms: _622  and  _623
REMARK  257  A    between atoms: _623  and  _624
REMARK  258  A    between atoms: _629  and  _631
REMARK  259  A    between atoms: _631  and  _632
REMARK  260  A    between atoms: _631  and  _634
REMARK  261  A    between atoms: _634  and  _635
REMARK  262  A    between atoms: _638  and  _640
REMARK  263  A    between atoms: _640  and  _641
REMARK  264  A    between atoms: _643  and  _645
REMARK  265  A    between atoms: _645  and  _646
REMARK  266  A    between atoms: _649  and  _651
REMARK  267  A    between atoms: _651  and  _652
REMARK  268  A    between atoms: _651  and  _654
REMARK  269  A    between atoms: _654  and  _655
REMARK  270  A    between atoms: _660  and  _661
REMARK                            x       y       z     vdW  Elec       q    Type
REMARK                         _______ _______ _______ _____ _____    ______ ____
ROOT
ATOM      1  O   HOH     1      41.160  26.864  34.651  0.00  0.00    +0.000 OA
ENDROOT
TORSDOF 0
REMARK  Name = ../refined-set-2016/2qrm/2qrm_pocket.pdb
REMARK  270 active torsions:
REMARK  status: ('A' for Active; 'I' for Inactive)
REMARK    1  A    between atoms: _1  and  _3
REMARK    2  A    between atoms: _3  and  _4
REMARK    3  A    between atoms: _3  and  _6
REMARK    4  A    between atoms: _6  and  _7
REMARK    5  A    between atoms: _12  and  _13
REMARK    6  A    between atoms: _15  and  _17
REMARK    7  A    between atoms: _17  and  _18
REMARK    8  A    between atoms: _17  and  _20
REMARK    9  A    between atoms: _20  and  _21
REMARK   10  A    between atoms: _24  and  _26
REMARK   11  A    between atoms: _26  and  _27
REMARK   12  A    between atoms: _26  and  _29
REMARK   13  A    between atoms: _29  and  _30
REMARK   14  A    between atoms: _30  and  _31
REMARK   15  A    between atoms: _34  and  _36
REMARK   16  A    between atoms: _36  and  _37
REMARK   17  A    between atoms: _39  and  _41
REMARK   18  A    between atoms: _41  and  _42
REMARK   19  A    between atoms: _41  and  _44
REMARK   20  A    between atoms: _44  and  _45
REMARK   21  A    between atoms: _50  and  _52
REMARK   22  A    between atoms: _52  and  _53
REMARK   23  A    between atoms: _55  and  _57
REMARK   24  A    between atoms: _57  and  _58
REMARK   25  A    between atoms: _60  and  _62
REMARK   26  A    between atoms: _62  and  _63
REMARK   27  A    between atoms: _62  and  _65
REMARK   28  A    between atoms: _65  and  _66
REMARK   29  A    between atoms: _69  and  _71
REMARK   30  A    between atoms: _71  and  _72
REMARK   31  A    between atoms: _74  and  _76
REMARK   32  A    between atoms: _76  and  _77
REMARK   33  A    between atoms: _76  and  _79
REMARK   34  A    between atoms: _79  and  _80
REMARK   35  A    between atoms: _80  and  _81
REMARK   36  A    between atoms: _81  and  _82
REMARK   37  A    between atoms: _91  and  _93
REMARK   38  A    between atoms: _93  and  _94
REMARK   39  A    between atoms: _93  and  _96
REMARK   40  A    between atoms: _96  and  _97
REMARK   41  A    between atoms: _100  and  _102
REMARK   42  A    between atoms: _102  and  _103
REMARK   43  A    between atoms: _106  and  _108
REMARK   44  A    between atoms: _108  and  _109
REMARK   45  A    between atoms: _108  and  _111
REMARK   46  A    between atoms: _111  and  _112
REMARK   47  A    between atoms: _118  and  _120
REMARK   48  A    between atoms: _120  and  _121
REMARK   49  A    between atoms: _120  and  _123
REMARK   50  A    between atoms: _123  and  _124
REMARK   51  A    between atoms: _129  and  _130
REMARK   52  A    between atoms: _132  and  _134
REMARK   53  A    between atoms: _134  and  _135
REMARK   54  A    between atoms: _134  and  _137
REMARK   55  A    between atoms: _137  and  _138
REMARK   56  A    between atoms: _141  and  _143
REMARK   57  A    between atoms: _143  and  _144
REMARK   58  A    between atoms: _143  and  _146
REMARK   59  A    between atoms: _146  and  _147
REMARK   60  A    between atoms: _152  and  _153
REMARK   61  A    between atoms: _156  and  _157
REMARK   62  A    between atoms: _162  and  _164
REMARK   63  A    between atoms: _164  and  _165
REMARK   64  A    between atoms: _164  and  _167
REMARK   65  A    between atoms: _167  and  _168
REMARK   66  A    between atoms: _173  and  _175
REMARK   67  A    between atoms: _175  and  _176
REMARK   68  A    between atoms: _175  and  _178
REMARK   69  A    between atoms: _178  and  _179
REMARK   70  A    between atoms: _182  and  _184
REMARK   71  A    between atoms: _184  and  _185
REMARK   72  A    between atoms: _184  and  _187
REMARK   73  A    between atoms: _187  and  _188
REMARK   74  A    between atoms: _193  and  _195
REMARK   75  A    between atoms: _195  and  _196
REMARK   76  A    between atoms: _195  and  _198
REMARK   77  A    between atoms: _198  and  _199
REMARK   78  A    between atoms: _205  and  _207
REMARK   79  A    between atoms: _207  and  _208
REMARK   80  A    between atoms: _207  and  _210
REMARK   81  A    between atoms: _210  and  _211
REMARK   82  A    between atoms: _217  and  _219
REMARK   83  A    between atoms: _219  and  _220
REMARK   84  A    between atoms: _219  and  _222
REMARK   85  A    between atoms: _222  and  _223
REMARK   86  A    between atoms: _223  and  _224
REMARK   87  A    between atoms: _227  and  _229
REMARK   88  A    between atoms: _229  and  _230
REMARK   89  A    between atoms: _229  and  _232
REMARK   90  A    between atoms: _232  and  _233
REMARK   91  A    between atoms: _233  and  _234
REMARK   92  A    between atoms: _234  and  _235
REMARK   93  A    between atoms: _244  and  _246
REMARK   94  A    between atoms: _246  and  _247
REMARK   95  A    between atoms: _246  and  _249
REMARK   96  A    between atoms: _249  and  _250
REMARK   97  A    between atoms: _250  and  _251
REMARK   98  A    between atoms: _254  and  _256
REMARK   99  A    between atoms: _256  and  _257
REMARK  100  A    between atoms: _256  and  _259
REMARK  101  A    between atoms: _259  and  _260
REMARK  102  A    between atoms: _265  and  _267
REMARK  103  A    between atoms: _267  and  _268
REMARK  104  A    between atoms: _267  and  _270
REMARK  105  A    between atoms: _270  and  _271
REMARK  106  A    between atoms: _274  and  _276
REMARK  107  A    between atoms: _276  and  _277
REMARK  108  A    between atoms: _276  and  _279
REMARK  109  A    between atoms: _279  and  _280
REMARK  110  A    between atoms: _283  and  _285
REMARK  111  A    between atoms: _285  and  _286
REMARK  112  A    between atoms: _285  and  _288
REMARK  113  A    between atoms: _288  and  _289
REMARK  114  A    between atoms: _294  and  _296
REMARK  115  A    between atoms: _296  and  _297
REMARK  116  A    between atoms: _296  and  _299
REMARK  117  A    between atoms: _299  and  _300
REMARK  118  A    between atoms: _303  and  _305
REMARK  119  A    between atoms: _305  and  _306
REMARK  120  A    between atoms: _305  and  _308
REMARK  121  A    between atoms: _308  and  _309
REMARK  122  A    between atoms: _314  and  _316
REMARK  123  A    between atoms: _316  and  _317
REMARK  124  A    between atoms: _316  and  _319
REMARK  125  A    between atoms: _319  and  _320
REMARK  126  A    between atoms: _325  and  _327
REMARK  127  A    between atoms: _327  and  _328
REMARK  128  A    between atoms: _327  and  _330
REMARK  129  A    between atoms: _330  and  _331
REMARK  130  A    between atoms: _334  and  _336
REMARK  131  A    between atoms: _336  and  _337
REMARK  132  A    between atoms: _336  and  _339
REMARK  133  A    between atoms: _342  and  _344
REMARK  134  A    between atoms: _344  and  _345
REMARK  135  A    between atoms: _344  and  _347
REMARK  136  A    between atoms: _347  and  _348
REMARK  137  A    between atoms: _351  and  _353
REMARK  138  A    between atoms: _353  and  _354
REMARK  139  A    between atoms: _353  and  _356
REMARK  140  A    between atoms: _356  and  _357
REMARK  141  A    between atoms: _357  and  _358
REMARK  142  A    between atoms: _361  and  _363
REMARK  143  A    between atoms: _363  and  _364
REMARK  144  A    between atoms: _367  and  _369
REMARK  145  A    between atoms: _369  and  _370
REMARK  146  A    between atoms: _369  and  _372
REMARK  147  A    between atoms: _372  and  _373
REMARK  148  A    between atoms: _376  and  _378
REMARK  149  A    between atoms: _378  and  _379
REMARK  150  A    between atoms: _378  and  _381
REMARK  151  A    between atoms: _381  and  _382
REMARK  152  A    between atoms: _382  and  _383
REMARK  153  A    between atoms: _386  and  _388
REMARK  154  A    between atoms: _388  and  _389
REMARK  155  A    between atoms: _388  and  _391
REMARK  156  A    between atoms: _391  and  _392
REMARK  157  A    between atoms: _397  and  _399
REMARK  158  A    between atoms: _399  and  _400
REMARK  159  A    between atoms: _402  and  _404
REMARK  160  A    between atoms: _404  and  _405
REMARK  161  A    between atoms: _404  and  _407
REMARK  162  A    between atoms: _410  and  _412
REMARK  163  A    between atoms: _412  and  _413
REMARK  164  A    between atoms: _416  and  _418
REMARK  165  A    between atoms: _418  and  _419
REMARK  166  A    between atoms: _418  and  _421
REMARK  167  A    between atoms: _421  and  _422
REMARK  168  A    between atoms: _427  and  _429
REMARK  169  A    between atoms: _429  and  _430
REMARK  170  A    between atoms: _429  and  _432
REMARK  171  A    between atoms: _432  and  _433
REMARK  172  A    between atoms: _433  and  _434
REMARK  173  A    between atoms: _434  and  _435
REMARK  174  A    between atoms: _435  and  _436
REMARK  175  A    between atoms: _440  and  _442
REMARK  176  A    between atoms: _442  and  _443
REMARK  177  A    between atoms: _442  and  _445
REMARK  178  A    between atoms: _445  and  _446
REMARK  179  A    between atoms: _449  and  _451
REMARK  180  A    between atoms: _451  and  _452
REMARK  181  A    between atoms: _451  and  _454
REMARK  182  A    between atoms: _454  and  _455
REMARK  183  A    between atoms: _460  and  _462
REMARK  184  A    between atoms: _462  and  _463
REMARK  185  A    between atoms: _465  and  _467
REMARK  186  A    between atoms: _467  and  _468
REMARK  187  A    between atoms: _467  and  _470
REMARK  188  A    between atoms: _470  and  _471
REMARK  189  A    between atoms: _471  and  _472
REMARK  190  A    between atoms: _472  and  _473
REMARK  191  A    between atoms: _473  and  _474
REMARK  192  A    between atoms: _478  and  _480
REMARK  193  A    between atoms: _480  and  _481
REMARK  194  A    between atoms: _480  and  _483
REMARK  195  A    between atoms: _483  and  _484
REMARK  196  A    between atoms: _484  and  _485
REMARK  197  A    between atoms: _485  and  _486
REMARK  198  A    between atoms: _495  and  _497
REMARK  199  A    between atoms: _497  and  _498
REMARK  200  A    between atoms: _497  and  _500
REMARK  201  A    between atoms: _500  and  _501
REMARK  202  A    between atoms: _506  and  _507
REMARK  203  A    between atoms: _509  and  _511
REMARK  204  A    between atoms: _511  and  _512
REMARK  205  A    between atoms: _511  and  _514
REMARK  206  A    between atoms: _514  and  _515
REMARK  207  A    between atoms: _515  and  _516
REMARK  208  A    between atoms: _516  and  _517
REMARK  209  A    between atoms: _517  and  _518
REMARK  210  A    between atoms: _522  and  _524
REMARK  211  A    between atoms: _524  and  _525
REMARK  212  A    between atoms: _524  and  _527
REMARK  213  A    between atoms: _527  and  _528
REMARK  214  A    between atoms: _530  and  _532
REMARK  215  A    between atoms: _532  and  _533
REMARK  216  A    between atoms: _532  and  _535
REMARK  217  A    between atoms: _535  and  _536
REMARK  218  A    between atoms: _539  and  _541
REMARK  219  A    between atoms: _541  and  _542
REMARK  220  A    between atoms: _541  and  _544
REMARK  221  A    between atoms: _544  and  _545
REMARK  222  A    between atoms: _545  and  _546
REMARK  223  A    between atoms: _549  and  _551
REMARK  224  A    between atoms: _551  and  _552
REMARK  225  A    between atoms: _555  and  _557
REMARK  226  A    between atoms: _557  and  _558
REMARK  227  A    between atoms: _557  and  _560
REMARK  228  A    between atoms: _560  and  _561
REMARK  229  A    between atoms: _563  and  _565
REMARK  230  A    between atoms: _565  and  _566
REMARK  231  A    between atoms: _568  and  _570
REMARK  232  A    between atoms: _570  and  _571
REMARK  233  A    between atoms: _570  and  _573
REMARK  234  A    between atoms: _573  and  _574
REMARK  235  A    between atoms: _577  and  _579
REMARK  236  A    between atoms: _579  and  _580
REMARK  237  A    between atoms: _582  and  _584
REMARK  238  A    between atoms: _584  and  _585
REMARK  239  A    between atoms: _584  and  _587
REMARK  240  A    between atoms: _587  and  _588
REMARK  241  A    between atoms: _593  and  _595
REMARK  242  A    between atoms: _595  and  _596
REMARK  243  A    between atoms: _595  and  _598
REMARK  244  A    between atoms: _598  and  _599
REMARK  245  A    between atoms: _599  and  _600
REMARK  246  A    between atoms: _607  and  _608
REMARK  247  A    between atoms: _608  and  _624
REMARK  248  A    between atoms: _609  and  _611
REMARK  249  A    between atoms: _611  and  _612
REMARK  250  A    between atoms: _612  and  _613
REMARK  251  A    between atoms: _617  and  _619
REMARK  252  A    between atoms: _619  and  _620
REMARK  253  A    between atoms: _619  and  _627
REMARK  254  A    between atoms: _620  and  _621
REMARK  255  A    between atoms: _621  and  _622
REMARK  256  A    between atoms: _622  and  _623
REMARK  257  A    between atoms: _623  and  _624
REMARK  258  A    between atoms: _629  and  _631
REMARK  259  A    between atoms: _631  and  _632
REMARK  260  A    between atoms: _631  and  _634
REMARK  261  A    between atoms: _634  and  _635
REMARK  262  A    between atoms: _638  and  _640
REMARK  263  A    between atoms: _640  and  _641
REMARK  264  A    between atoms: _643  and  _645
REMARK  265  A    between atoms: _645  and  _646
REMARK  266  A    between atoms: _649  and  _651
REMARK  267  A    between atoms: _651  and  _652
REMARK  268  A    between atoms: _651  and  _654
REMARK  269  A    between atoms: _654  and  _655
REMARK  270  A    between atoms: _660  and  _661
REMARK                            x       y       z     vdW  Elec       q    Type
REMARK                         _______ _______ _______ _____ _____    ______ ____
ROOT
ATOM      1  O   HOH     1      34.041  32.978  31.166  0.00  0.00    +0.000 OA
ENDROOT
TORSDOF 0
