REMARK  Name = ../refined-set-2016/1sbr/1sbr_pocket.pdb
REMARK  148 active torsions:
REMARK  status: ('A' for Active; 'I' for Inactive)
REMARK    1  A    between atoms: _1  and  _3
REMARK    2  A    between atoms: _3  and  _4
REMARK    3  A    between atoms: _3  and  _6
REMARK    4  A    between atoms: _6  and  _7
REMARK    5  A    between atoms: _13  and  _15
REMARK    6  A    between atoms: _15  and  _16
REMARK    7  A    between atoms: _15  and  _18
REMARK    8  A    between atoms: _18  and  _19
REMARK    9  A    between atoms: _19  and  _20
REMARK   10  A    between atoms: _20  and  _21
REMARK   11  A    between atoms: _30  and  _32
REMARK   12  A    between atoms: _32  and  _33
REMARK   13  A    between atoms: _32  and  _35
REMARK   14  A    between atoms: _35  and  _36
REMARK   15  A    between atoms: _42  and  _44
REMARK   16  A    between atoms: _44  and  _45
REMARK   17  A    between atoms: _44  and  _47
REMARK   18  A    between atoms: _47  and  _48
REMARK   19  A    between atoms: _50  and  _52
REMARK   20  A    between atoms: _52  and  _53
REMARK   21  A    between atoms: _52  and  _55
REMARK   22  A    between atoms: _55  and  _56
REMARK   23  A    between atoms: _59  and  _61
REMARK   24  A    between atoms: _61  and  _62
REMARK   25  A    between atoms: _61  and  _64
REMARK   26  A    between atoms: _64  and  _65
REMARK   27  A    between atoms: _70  and  _71
REMARK   28  A    between atoms: _74  and  _75
REMARK   29  A    between atoms: _80  and  _82
REMARK   30  A    between atoms: _82  and  _83
REMARK   31  A    between atoms: _82  and  _85
REMARK   32  A    between atoms: _85  and  _86
REMARK   33  A    between atoms: _92  and  _94
REMARK   34  A    between atoms: _94  and  _95
REMARK   35  A    between atoms: _94  and  _97
REMARK   36  A    between atoms: _97  and  _98
REMARK   37  A    between atoms: _101  and  _103
REMARK   38  A    between atoms: _103  and  _104
REMARK   39  A    between atoms: _103  and  _106
REMARK   40  A    between atoms: _106  and  _107
REMARK   41  A    between atoms: _109  and  _111
REMARK   42  A    between atoms: _111  and  _112
REMARK   43  A    between atoms: _111  and  _114
REMARK   44  A    between atoms: _117  and  _119
REMARK   45  A    between atoms: _119  and  _120
REMARK   46  A    between atoms: _119  and  _122
REMARK   47  A    between atoms: _122  and  _123
REMARK   48  A    between atoms: _126  and  _128
REMARK   49  A    between atoms: _128  and  _129
REMARK   50  A    between atoms: _128  and  _131
REMARK   51  A    between atoms: _131  and  _132
REMARK   52  A    between atoms: _132  and  _133
REMARK   53  A    between atoms: _133  and  _134
REMARK   54  A    between atoms: _134  and  _135
REMARK   55  A    between atoms: _139  and  _141
REMARK   56  A    between atoms: _141  and  _142
REMARK   57  A    between atoms: _141  and  _144
REMARK   58  A    between atoms: _144  and  _145
REMARK   59  A    between atoms: _147  and  _149
REMARK   60  A    between atoms: _149  and  _150
REMARK   61  A    between atoms: _153  and  _155
REMARK   62  A    between atoms: _155  and  _156
REMARK   63  A    between atoms: _155  and  _158
REMARK   64  A    between atoms: _158  and  _159
REMARK   65  A    between atoms: _162  and  _164
REMARK   66  A    between atoms: _164  and  _165
REMARK   67  A    between atoms: _164  and  _167
REMARK   68  A    between atoms: _167  and  _168
REMARK   69  A    between atoms: _168  and  _169
REMARK   70  A    between atoms: _169  and  _170
REMARK   71  A    between atoms: _170  and  _171
REMARK   72  A    between atoms: _175  and  _177
REMARK   73  A    between atoms: _177  and  _178
REMARK   74  A    between atoms: _177  and  _180
REMARK   75  A    between atoms: _180  and  _181
REMARK   76  A    between atoms: _184  and  _186
REMARK   77  A    between atoms: _186  and  _187
REMARK   78  A    between atoms: _186  and  _189
REMARK   79  A    between atoms: _189  and  _190
REMARK   80  A    between atoms: _193  and  _195
REMARK   81  A    between atoms: _195  and  _196
REMARK   82  A    between atoms: _195  and  _198
REMARK   83  A    between atoms: _198  and  _199
REMARK   84  A    between atoms: _204  and  _206
REMARK   85  A    between atoms: _206  and  _207
REMARK   86  A    between atoms: _206  and  _209
REMARK   87  A    between atoms: _209  and  _210
REMARK   88  A    between atoms: _213  and  _215
REMARK   89  A    between atoms: _215  and  _216
REMARK   90  A    between atoms: _215  and  _218
REMARK   91  A    between atoms: _218  and  _219
REMARK   92  A    between atoms: _221  and  _223
REMARK   93  A    between atoms: _223  and  _224
REMARK   94  A    between atoms: _223  and  _226
REMARK   95  A    between atoms: _226  and  _227
REMARK   96  A    between atoms: _230  and  _232
REMARK   97  A    between atoms: _232  and  _233
REMARK   98  A    between atoms: _232  and  _235
REMARK   99  A    between atoms: _238  and  _240
REMARK  100  A    between atoms: _240  and  _241
REMARK  101  A    between atoms: _240  and  _243
REMARK  102  A    between atoms: _243  and  _244
REMARK  103  A    between atoms: _247  and  _249
REMARK  104  A    between atoms: _249  and  _250
REMARK  105  A    between atoms: _249  and  _252
REMARK  106  A    between atoms: _252  and  _253
REMARK  107  A    between atoms: _256  and  _258
REMARK  108  A    between atoms: _258  and  _259
REMARK  109  A    between atoms: _258  and  _261
REMARK  110  A    between atoms: _264  and  _266
REMARK  111  A    between atoms: _266  and  _267
REMARK  112  A    between atoms: _266  and  _269
REMARK  113  A    between atoms: _269  and  _270
REMARK  114  A    between atoms: _270  and  _271
REMARK  115  A    between atoms: _273  and  _275
REMARK  116  A    between atoms: _275  and  _276
REMARK  117  A    between atoms: _275  and  _278
REMARK  118  A    between atoms: _278  and  _279
REMARK  119  A    between atoms: _284  and  _286
REMARK  120  A    between atoms: _286  and  _287
REMARK  121  A    between atoms: _286  and  _289
REMARK  122  A    between atoms: _289  and  _290
REMARK  123  A    between atoms: _290  and  _291
REMARK  124  A    between atoms: _293  and  _295
REMARK  125  A    between atoms: _295  and  _296
REMARK  126  A    between atoms: _295  and  _298
REMARK  127  A    between atoms: _298  and  _299
REMARK  128  A    between atoms: _304  and  _306
REMARK  129  A    between atoms: _306  and  _307
REMARK  130  A    between atoms: _306  and  _309
REMARK  131  A    between atoms: _312  and  _314
REMARK  132  A    between atoms: _314  and  _315
REMARK  133  A    between atoms: _314  and  _317
REMARK  134  A    between atoms: _317  and  _318
REMARK  135  A    between atoms: _318  and  _319
REMARK  136  A    between atoms: _324  and  _326
REMARK  137  A    between atoms: _326  and  _327
REMARK  138  A    between atoms: _326  and  _329
REMARK  139  A    between atoms: _329  and  _330
REMARK  140  A    between atoms: _335  and  _337
REMARK  141  A    between atoms: _337  and  _338
REMARK  142  A    between atoms: _337  and  _340
REMARK  143  A    between atoms: _340  and  _341
REMARK  144  A    between atoms: _343  and  _345
REMARK  145  A    between atoms: _345  and  _346
REMARK  146  A    between atoms: _345  and  _348
REMARK  147  A    between atoms: _348  and  _349
REMARK  148  A    between atoms: _352  and  _353
REMARK                            x       y       z     vdW  Elec       q    Type
REMARK                         _______ _______ _______ _____ _____    ______ ____
ROOT
ATOM      1  C   PHE A   3       8.306  43.142   6.808  0.00  0.00    +0.241 C 
ATOM      2  N   SER A   4       8.996  42.726   7.881  0.00  0.00    -0.295 N 
ATOM      3  H   SER A   4       8.472  42.372   8.707  0.00  0.00    +0.150 HD
ATOM      4  O   PHE A   3       8.802  43.703   5.856  0.00  0.00    -0.273 OA
ENDROOT
BRANCH   2   5
ATOM      5  CA  SER A   4      10.459  42.751   7.934  0.00  0.00    +0.178 C 
BRANCH   5   6
ATOM      6  C   SER A   4      11.078  41.386   8.259  0.00  0.00    +0.243 C 
ATOM      7  O   SER A   4      10.461  40.534   8.902  0.00  0.00    -0.273 OA
ATOM      8  N   LEU A   5      12.303  41.177   7.793  0.00  0.00    -0.297 N 
ATOM      9  H   LEU A   5      12.710  41.858   7.121  0.00  0.00    +0.150 HD
BRANCH   8  10
ATOM     10  CA  LEU A   5      13.097  40.017   8.197  0.00  0.00    +0.149 C 
BRANCH  10  11
ATOM     11  C   LEU A   5      14.180  40.519   9.128  0.00  0.00    +0.241 C 
ATOM     12  N   TYR A   6      14.322  39.831  10.250  0.00  0.00    -0.297 N 
ATOM     13  H   TYR A   6      13.688  39.028  10.439  0.00  0.00    +0.150 HD
ATOM     14  O   LEU A   5      14.850  41.543   8.860  0.00  0.00    -0.273 OA
BRANCH  12  15
ATOM     15  CA  TYR A   6      15.350  40.176  11.227  0.00  0.00    +0.153 C 
BRANCH  15  16
ATOM     16  C   TYR A   6      16.295  38.989  11.460  0.00  0.00    +0.244 C 
ATOM     17  O   TYR A   6      15.967  38.066  12.176  0.00  0.00    -0.273 OA
ATOM     18  N   PRO A   7      17.416  38.959  10.748  0.00  0.00    -0.273 N 
ATOM     19  CA  PRO A   7      18.455  37.940  10.976  0.00  0.00    +0.140 C 
ATOM     20  CB  PRO A   7      19.260  37.980   9.672  0.00  0.00    +0.030 C 
ATOM     21  CG  PRO A   7      18.426  38.796   8.728  0.00  0.00    +0.024 C 
ATOM     22  CD  PRO A   7      17.736  39.812   9.592  0.00  0.00    +0.094 C 
BRANCH  19  23
ATOM     23  C   PRO A   7      19.340  38.271  12.171  0.00  0.00    +0.227 C 
ATOM     24  O   PRO A   7      20.029  39.299  12.181  0.00  0.00    -0.286 OA
ENDBRANCH  19  23
ENDBRANCH  15  16
BRANCH  15  25
ATOM     25  CB  TYR A   6      14.690  40.584  12.518  0.00  0.00    +0.055 C 
BRANCH  25  26
ATOM     26  CG  TYR A   6      13.662  41.691  12.349  0.00  0.00    -0.020 A 
ATOM     27  CD2 TYR A   6      12.304  41.434  12.568  0.00  0.00    -0.001 A 
ATOM     28  CE2 TYR A   6      11.358  42.406  12.432  0.00  0.00    +0.036 A 
ATOM     29  CZ  TYR A   6      11.736  43.690  12.062  0.00  0.00    +0.134 A 
ATOM     30  CE1 TYR A   6      13.077  44.002  11.793  0.00  0.00    +0.036 A 
ATOM     31  CD1 TYR A   6      14.049  42.989  11.950  0.00  0.00    -0.001 A 
BRANCH  29  32
ATOM     32  OH  TYR A   6      10.760  44.636  11.937  0.00  0.00    -0.506 OA
ATOM     33  HH  TYR A   6       9.884  44.237  12.166  0.00  0.00    +0.292 HD
ENDBRANCH  29  32
ENDBRANCH  25  26
ENDBRANCH  15  25
ENDBRANCH  12  15
ENDBRANCH  10  11
BRANCH  10  34
ATOM     34  CB  LEU A   5      13.709  39.308   6.982  0.00  0.00    +0.029 C 
BRANCH  34  35
ATOM     35  CG  LEU A   5      12.798  38.629   5.950  0.00  0.00    +0.002 C 
ATOM     36  CD2 LEU A   5      12.299  37.296   6.487  0.00  0.00    +0.000 C 
ATOM     37  CD1 LEU A   5      13.507  38.384   4.601  0.00  0.00    +0.000 C 
ENDBRANCH  34  35
ENDBRANCH  10  34
ENDBRANCH   8  10
ENDBRANCH   5   6
BRANCH   5  38
ATOM     38  CB  SER A   4      10.929  43.795   8.937  0.00  0.00    +0.166 C 
BRANCH  38  39
ATOM     39  OG  SER A   4      10.359  45.044   8.598  0.00  0.00    -0.380 OA
ATOM     40  H   SER A   4       9.372  44.973   8.625  0.00  0.00    +0.211 HD
ENDBRANCH  38  39
ENDBRANCH   5  38
ENDBRANCH   2   5
BRANCH   1  41
ATOM     41  CA  PHE A   3       6.822  42.822   6.788  0.00  0.00    +0.153 C 
BRANCH  41  44
ATOM     42  C   ARG A   2       4.879  43.994   6.032  0.00  0.00    +0.241 C 
ATOM     43  O   ARG A   2       4.322  43.811   7.115  0.00  0.00    -0.273 OA
ATOM     44  N   PHE A   3       6.132  43.628   5.795  0.00  0.00    -0.297 N 
ATOM     45  H   PHE A   3       6.611  43.912   4.916  0.00  0.00    +0.150 HD
BRANCH  42  46
ATOM     46  CA  ARG A   2       4.133  44.681   4.927  0.00  0.00    +0.149 C 
BRANCH  46  48
ATOM     47  C   PHE A   1       2.912  43.077   3.600  0.00  0.00    +0.239 C 
ATOM     48  N   ARG A   2       2.988  43.835   4.674  0.00  0.00    -0.297 N 
ATOM     49  H   ARG A   2       2.204  43.825   5.358  0.00  0.00    +0.150 HD
ATOM     50  O   PHE A   1       3.739  43.101   2.704  0.00  0.00    -0.274 OA
BRANCH  47  51
ATOM     51  CA  PHE A   1       1.700  42.170   3.521  0.00  0.00    +0.149 C 
BRANCH  51  52
ATOM     52  N   PHE A   1       0.941  42.624   2.377  0.00  0.00    -0.238 NA
ATOM     53  H   PHE A   1       1.445  42.889   1.507  0.00  0.00    +0.142 HD
ENDBRANCH  51  52
BRANCH  51  54
ATOM     54  CB  PHE A   1       2.075  40.689   3.353  0.00  0.00    +0.053 C 
BRANCH  54  55
ATOM     55  CG  PHE A   1       2.816  40.079   4.528  0.00  0.00    -0.020 A 
ATOM     56  CD2 PHE A   1       2.332  40.199   5.837  0.00  0.00    -0.004 A 
ATOM     57  CE2 PHE A   1       3.005  39.610   6.904  0.00  0.00    -0.000 A 
ATOM     58  CZ  PHE A   1       4.208  38.870   6.667  0.00  0.00    -0.000 A 
ATOM     59  CE1 PHE A   1       4.688  38.726   5.366  0.00  0.00    -0.000 A 
ATOM     60  CD1 PHE A   1       3.998  39.333   4.302  0.00  0.00    -0.004 A 
ENDBRANCH  54  55
ENDBRANCH  51  54
ENDBRANCH  47  51
ENDBRANCH  46  48
BRANCH  46  61
ATOM     61  CB  ARG A   2       3.719  46.061   5.437  0.00  0.00    +0.033 C 
BRANCH  61  62
ATOM     62  CG  ARG A   2       4.994  46.928   5.736  0.00  0.00    +0.045 C 
BRANCH  62  63
ATOM     63  CD  ARG A   2       4.768  48.424   5.899  0.00  0.00    +0.174 C 
BRANCH  63  64
ATOM     64  NE  ARG A   2       4.267  49.029   4.670  0.00  0.00    -0.265 N 
ATOM     65  HE  ARG A   2       3.245  49.208   4.606  0.00  0.00    +0.259 HD
ATOM     66  CZ  ARG A   2       5.010  49.367   3.633  0.00  0.00    +0.342 C 
ATOM     67  NH2 ARG A   2       6.330  49.143   3.650  0.00  0.00    -0.292 N 
ATOM     68 HH21 ARG A   2       6.772  48.702   4.482  0.00  0.00    +0.255 HD
ATOM     69 HH22 ARG A   2       6.913  49.410   2.832  0.00  0.00    +0.255 HD
ATOM     70  NH1 ARG A   2       4.418  49.919   2.563  0.00  0.00    -0.292 N 
ATOM     71 HH11 ARG A   2       3.390  50.074   2.560  0.00  0.00    +0.255 HD
ATOM     72 HH12 ARG A   2       4.987  50.192   1.737  0.00  0.00    +0.255 HD
ENDBRANCH  63  64
ENDBRANCH  62  63
ENDBRANCH  61  62
ENDBRANCH  46  61
ENDBRANCH  42  46
ENDBRANCH  41  44
BRANCH  41  73
ATOM     73  CB  PHE A   3       6.629  41.333   6.473  0.00  0.00    +0.055 C 
BRANCH  73  74
ATOM     74  CG  PHE A   3       7.403  40.882   5.252  0.00  0.00    -0.020 A 
ATOM     75  CD2 PHE A   3       8.616  40.239   5.393  0.00  0.00    -0.004 A 
ATOM     76  CE2 PHE A   3       9.334  39.831   4.271  0.00  0.00    -0.000 A 
ATOM     77  CZ  PHE A   3       8.848  40.081   2.994  0.00  0.00    -0.000 A 
ATOM     78  CE1 PHE A   3       7.626  40.721   2.826  0.00  0.00    -0.000 A 
ATOM     79  CD1 PHE A   3       6.912  41.129   3.959  0.00  0.00    -0.004 A 
ENDBRANCH  73  74
ENDBRANCH  41  73
ENDBRANCH   1  41
TORSDOF 28
REMARK  Name = ../refined-set-2016/1sbr/1sbr_pocket.pdb
REMARK  148 active torsions:
REMARK  status: ('A' for Active; 'I' for Inactive)
REMARK    1  A    between atoms: _1  and  _3
REMARK    2  A    between atoms: _3  and  _4
REMARK    3  A    between atoms: _3  and  _6
REMARK    4  A    between atoms: _6  and  _7
REMARK    5  A    between atoms: _13  and  _15
REMARK    6  A    between atoms: _15  and  _16
REMARK    7  A    between atoms: _15  and  _18
REMARK    8  A    between atoms: _18  and  _19
REMARK    9  A    between atoms: _19  and  _20
REMARK   10  A    between atoms: _20  and  _21
REMARK   11  A    between atoms: _30  and  _32
REMARK   12  A    between atoms: _32  and  _33
REMARK   13  A    between atoms: _32  and  _35
REMARK   14  A    between atoms: _35  and  _36
REMARK   15  A    between atoms: _42  and  _44
REMARK   16  A    between atoms: _44  and  _45
REMARK   17  A    between atoms: _44  and  _47
REMARK   18  A    between atoms: _47  and  _48
REMARK   19  A    between atoms: _50  and  _52
REMARK   20  A    between atoms: _52  and  _53
REMARK   21  A    between atoms: _52  and  _55
REMARK   22  A    between atoms: _55  and  _56
REMARK   23  A    between atoms: _59  and  _61
REMARK   24  A    between atoms: _61  and  _62
REMARK   25  A    between atoms: _61  and  _64
REMARK   26  A    between atoms: _64  and  _65
REMARK   27  A    between atoms: _70  and  _71
REMARK   28  A    between atoms: _74  and  _75
REMARK   29  A    between atoms: _80  and  _82
REMARK   30  A    between atoms: _82  and  _83
REMARK   31  A    between atoms: _82  and  _85
REMARK   32  A    between atoms: _85  and  _86
REMARK   33  A    between atoms: _92  and  _94
REMARK   34  A    between atoms: _94  and  _95
REMARK   35  A    between atoms: _94  and  _97
REMARK   36  A    between atoms: _97  and  _98
REMARK   37  A    between atoms: _101  and  _103
REMARK   38  A    between atoms: _103  and  _104
REMARK   39  A    between atoms: _103  and  _106
REMARK   40  A    between atoms: _106  and  _107
REMARK   41  A    between atoms: _109  and  _111
REMARK   42  A    between atoms: _111  and  _112
REMARK   43  A    between atoms: _111  and  _114
REMARK   44  A    between atoms: _117  and  _119
REMARK   45  A    between atoms: _119  and  _120
REMARK   46  A    between atoms: _119  and  _122
REMARK   47  A    between atoms: _122  and  _123
REMARK   48  A    between atoms: _126  and  _128
REMARK   49  A    between atoms: _128  and  _129
REMARK   50  A    between atoms: _128  and  _131
REMARK   51  A    between atoms: _131  and  _132
REMARK   52  A    between atoms: _132  and  _133
REMARK   53  A    between atoms: _133  and  _134
REMARK   54  A    between atoms: _134  and  _135
REMARK   55  A    between atoms: _139  and  _141
REMARK   56  A    between atoms: _141  and  _142
REMARK   57  A    between atoms: _141  and  _144
REMARK   58  A    between atoms: _144  and  _145
REMARK   59  A    between atoms: _147  and  _149
REMARK   60  A    between atoms: _149  and  _150
REMARK   61  A    between atoms: _153  and  _155
REMARK   62  A    between atoms: _155  and  _156
REMARK   63  A    between atoms: _155  and  _158
REMARK   64  A    between atoms: _158  and  _159
REMARK   65  A    between atoms: _162  and  _164
REMARK   66  A    between atoms: _164  and  _165
REMARK   67  A    between atoms: _164  and  _167
REMARK   68  A    between atoms: _167  and  _168
REMARK   69  A    between atoms: _168  and  _169
REMARK   70  A    between atoms: _169  and  _170
REMARK   71  A    between atoms: _170  and  _171
REMARK   72  A    between atoms: _175  and  _177
REMARK   73  A    between atoms: _177  and  _178
REMARK   74  A    between atoms: _177  and  _180
REMARK   75  A    between atoms: _180  and  _181
REMARK   76  A    between atoms: _184  and  _186
REMARK   77  A    between atoms: _186  and  _187
REMARK   78  A    between atoms: _186  and  _189
REMARK   79  A    between atoms: _189  and  _190
REMARK   80  A    between atoms: _193  and  _195
REMARK   81  A    between atoms: _195  and  _196
REMARK   82  A    between atoms: _195  and  _198
REMARK   83  A    between atoms: _198  and  _199
REMARK   84  A    between atoms: _204  and  _206
REMARK   85  A    between atoms: _206  and  _207
REMARK   86  A    between atoms: _206  and  _209
REMARK   87  A    between atoms: _209  and  _210
REMARK   88  A    between atoms: _213  and  _215
REMARK   89  A    between atoms: _215  and  _216
REMARK   90  A    between atoms: _215  and  _218
REMARK   91  A    between atoms: _218  and  _219
REMARK   92  A    between atoms: _221  and  _223
REMARK   93  A    between atoms: _223  and  _224
REMARK   94  A    between atoms: _223  and  _226
REMARK   95  A    between atoms: _226  and  _227
REMARK   96  A    between atoms: _230  and  _232
REMARK   97  A    between atoms: _232  and  _233
REMARK   98  A    between atoms: _232  and  _235
REMARK   99  A    between atoms: _238  and  _240
REMARK  100  A    between atoms: _240  and  _241
REMARK  101  A    between atoms: _240  and  _243
REMARK  102  A    between atoms: _243  and  _244
REMARK  103  A    between atoms: _247  and  _249
REMARK  104  A    between atoms: _249  and  _250
REMARK  105  A    between atoms: _249  and  _252
REMARK  106  A    between atoms: _252  and  _253
REMARK  107  A    between atoms: _256  and  _258
REMARK  108  A    between atoms: _258  and  _259
REMARK  109  A    between atoms: _258  and  _261
REMARK  110  A    between atoms: _264  and  _266
REMARK  111  A    between atoms: _266  and  _267
REMARK  112  A    between atoms: _266  and  _269
REMARK  113  A    between atoms: _269  and  _270
REMARK  114  A    between atoms: _270  and  _271
REMARK  115  A    between atoms: _273  and  _275
REMARK  116  A    between atoms: _275  and  _276
REMARK  117  A    between atoms: _275  and  _278
REMARK  118  A    between atoms: _278  and  _279
REMARK  119  A    between atoms: _284  and  _286
REMARK  120  A    between atoms: _286  and  _287
REMARK  121  A    between atoms: _286  and  _289
REMARK  122  A    between atoms: _289  and  _290
REMARK  123  A    between atoms: _290  and  _291
REMARK  124  A    between atoms: _293  and  _295
REMARK  125  A    between atoms: _295  and  _296
REMARK  126  A    between atoms: _295  and  _298
REMARK  127  A    between atoms: _298  and  _299
REMARK  128  A    between atoms: _304  and  _306
REMARK  129  A    between atoms: _306  and  _307
REMARK  130  A    between atoms: _306  and  _309
REMARK  131  A    between atoms: _312  and  _314
REMARK  132  A    between atoms: _314  and  _315
REMARK  133  A    between atoms: _314  and  _317
REMARK  134  A    between atoms: _317  and  _318
REMARK  135  A    between atoms: _318  and  _319
REMARK  136  A    between atoms: _324  and  _326
REMARK  137  A    between atoms: _326  and  _327
REMARK  138  A    between atoms: _326  and  _329
REMARK  139  A    between atoms: _329  and  _330
REMARK  140  A    between atoms: _335  and  _337
REMARK  141  A    between atoms: _337  and  _338
REMARK  142  A    between atoms: _337  and  _340
REMARK  143  A    between atoms: _340  and  _341
REMARK  144  A    between atoms: _343  and  _345
REMARK  145  A    between atoms: _345  and  _346
REMARK  146  A    between atoms: _345  and  _348
REMARK  147  A    between atoms: _348  and  _349
REMARK  148  A    between atoms: _352  and  _353
REMARK                            x       y       z     vdW  Elec       q    Type
REMARK                         _______ _______ _______ _____ _____    ______ ____
ROOT
ATOM      1  CA  ILE A   5      17.613  39.559   3.777  0.00  0.00    +0.149 C 
ENDROOT
BRANCH   1   3
ATOM      2  C   VAL A   4      19.099  37.635   4.050  0.00  0.00    +0.241 C 
ATOM      3  N   ILE A   5      18.833  38.924   4.289  0.00  0.00    -0.297 N 
ATOM      4  H   ILE A   5      19.504  39.487   4.849  0.00  0.00    +0.150 HD
ATOM      5  O   VAL A   4      18.357  36.929   3.401  0.00  0.00    -0.273 OA
BRANCH   2   6
ATOM      6  CA  VAL A   4      20.419  37.041   4.586  0.00  0.00    +0.149 C 
BRANCH   6   8
ATOM      7  C   SER A   3      21.975  38.086   3.041  0.00  0.00    +0.243 C 
ATOM      8  N   VAL A   4      21.582  37.895   4.294  0.00  0.00    -0.297 N 
ATOM      9  H   VAL A   4      22.098  38.351   5.073  0.00  0.00    +0.150 HD
ATOM     10  O   SER A   3      21.456  37.488   2.095  0.00  0.00    -0.273 OA
BRANCH   7  11
ATOM     11  CA  SER A   3      23.103  39.090   2.805  0.00  0.00    +0.178 C 
BRANCH  11  13
ATOM     12  C   ILE A   2      21.972  41.012   3.764  0.00  0.00    +0.241 C 
ATOM     13  N   SER A   3      23.011  40.189   3.735  0.00  0.00    -0.295 N 
ATOM     14  H   SER A   3      23.789  40.341   4.408  0.00  0.00    +0.150 HD
ATOM     15  O   ILE A   2      20.955  40.855   3.076  0.00  0.00    -0.273 OA
BRANCH  12  16
ATOM     16  CA  ILE A   2      22.078  42.125   4.787  0.00  0.00    +0.148 C 
BRANCH  16  18
ATOM     17  C   PHE A   1      21.668  40.550   6.586  0.00  0.00    +0.239 C 
ATOM     18  N   ILE A   2      22.419  41.516   6.059  0.00  0.00    -0.297 N 
ATOM     19  H   ILE A   2      23.266  41.840   6.569  0.00  0.00    +0.150 HD
ATOM     20  O   PHE A   1      20.638  40.146   6.046  0.00  0.00    -0.274 OA
BRANCH  17  21
ATOM     21  CA  PHE A   1      22.110  39.942   7.932  0.00  0.00    +0.149 C 
BRANCH  21  22
ATOM     22  N   PHE A   1      23.557  39.726   8.104  0.00  0.00    -0.238 NA
ATOM     23  H   PHE A   1      24.116  40.403   8.661  0.00  0.00    +0.142 HD
ENDBRANCH  21  22
BRANCH  21  24
ATOM     24  CB  PHE A   1      21.489  40.718   9.107  0.00  0.00    +0.053 C 
BRANCH  24  25
ATOM     25  CG  PHE A   1      21.914  42.140   9.173  0.00  0.00    -0.020 A 
ATOM     26  CD2 PHE A   1      23.161  42.491   9.742  0.00  0.00    -0.004 A 
ATOM     27  CE2 PHE A   1      23.571  43.836   9.791  0.00  0.00    -0.000 A 
ATOM     28  CZ  PHE A   1      22.737  44.833   9.270  0.00  0.00    -0.000 A 
ATOM     29  CE1 PHE A   1      21.489  44.480   8.709  0.00  0.00    -0.000 A 
ATOM     30  CD1 PHE A   1      21.088  43.143   8.663  0.00  0.00    -0.004 A 
ENDBRANCH  24  25
ENDBRANCH  21  24
ENDBRANCH  17  21
ENDBRANCH  16  18
BRANCH  16  31
ATOM     31  CB  ILE A   2      23.152  43.129   4.395  0.00  0.00    +0.027 C 
ATOM     32  CG2 ILE A   2      22.960  43.617   2.909  0.00  0.00    +0.002 C 
BRANCH  31  33
ATOM     33  CG1 ILE A   2      23.152  44.283   5.399  0.00  0.00    +0.002 C 
ATOM     34  CD1 ILE A   2      24.157  45.332   5.115  0.00  0.00    +0.000 C 
ENDBRANCH  31  33
ENDBRANCH  16  31
ENDBRANCH  12  16
ENDBRANCH  11  13
BRANCH  11  35
ATOM     35  CB  SER A   3      24.468  38.423   2.947  0.00  0.00    +0.166 C 
BRANCH  35  36
ATOM     36  OG  SER A   3      24.484  37.202   2.232  0.00  0.00    -0.380 OA
ATOM     37  H   SER A   3      23.786  36.600   2.594  0.00  0.00    +0.211 HD
ENDBRANCH  35  36
ENDBRANCH  11  35
ENDBRANCH   7  11
ENDBRANCH   6   8
BRANCH   6  38
ATOM     38  CB  VAL A   4      20.318  36.659   6.075  0.00  0.00    +0.027 C 
ATOM     39  CG2 VAL A   4      21.491  35.771   6.455  0.00  0.00    +0.002 C 
ATOM     40  CG1 VAL A   4      19.035  35.903   6.328  0.00  0.00    +0.002 C 
ENDBRANCH   6  38
ENDBRANCH   2   6
ENDBRANCH   1   3
BRANCH   1  41
ATOM     41  C   ILE A   5      17.615  39.485   2.241  0.00  0.00    +0.241 C 
ATOM     42  O   ILE A   5      16.621  39.045   1.634  0.00  0.00    -0.273 OA
ATOM     43  N   LYS A   6      18.730  39.861   1.624  0.00  0.00    -0.297 N 
ATOM     44  H   LYS A   6      19.562  40.122   2.191  0.00  0.00    +0.150 HD
BRANCH  43  45
ATOM     45  CA  LYS A   6      18.814  39.916   0.149  0.00  0.00    +0.149 C 
BRANCH  45  46
ATOM     46  C   LYS A   6      18.411  38.570  -0.469  0.00  0.00    +0.241 C 
ATOM     47  N   SER A   7      19.066  37.533   0.043  0.00  0.00    -0.295 N 
ATOM     48  H   SER A   7      19.697  37.712   0.850  0.00  0.00    +0.150 HD
ATOM     49  O   LYS A   6      17.513  38.479  -1.315  0.00  0.00    -0.273 OA
BRANCH  47  50
ATOM     50  CA  SER A   7      18.966  36.178  -0.439  0.00  0.00    +0.178 C 
BRANCH  50  51
ATOM     51  C   SER A   7      17.546  35.623  -0.391  0.00  0.00    +0.243 C 
ATOM     52  N   ALA A   8      16.873  35.824   0.729  0.00  0.00    -0.297 N 
ATOM     53  H   ALA A   8      17.329  36.351   1.501  0.00  0.00    +0.150 HD
ATOM     54  O   SER A   7      17.086  35.010  -1.339  0.00  0.00    -0.273 OA
BRANCH  52  55
ATOM     55  CA  ALA A   8      15.495  35.326   0.921  0.00  0.00    +0.149 C 
ATOM     56  CB  ALA A   8      15.038  35.558   2.355  0.00  0.00    +0.031 C 
BRANCH  55  57
ATOM     57  C   ALA A   8      14.491  35.935  -0.058  0.00  0.00    +0.241 C 
ATOM     58  N   LEU A   9      14.717  37.195  -0.440  0.00  0.00    -0.298 N 
ATOM     59  H   LEU A   9      15.566  37.688  -0.098  0.00  0.00    +0.150 HD
ATOM     60  O   ALA A   8      13.521  35.263  -0.447  0.00  0.00    -0.273 OA
BRANCH  58  61
ATOM     61  CA  LEU A   9      13.789  37.894  -1.332  0.00  0.00    +0.137 C 
BRANCH  61  62
ATOM     62  C   LEU A   9      14.059  37.513  -2.759  0.00  0.00    +0.227 C 
ATOM     63  O   LEU A   9      13.124  37.394  -3.558  0.00  0.00    -0.286 OA
ENDBRANCH  61  62
BRANCH  61  64
ATOM     64  CB  LEU A   9      13.838  39.416  -1.160  0.00  0.00    +0.028 C 
BRANCH  64  65
ATOM     65  CG  LEU A   9      13.381  39.979   0.200  0.00  0.00    +0.002 C 
ATOM     66  CD2 LEU A   9      11.867  39.764   0.442  0.00  0.00    +0.000 C 
ATOM     67  CD1 LEU A   9      13.767  41.479   0.323  0.00  0.00    +0.000 C 
ENDBRANCH  64  65
ENDBRANCH  61  64
ENDBRANCH  58  61
ENDBRANCH  55  57
ENDBRANCH  52  55
ENDBRANCH  50  51
BRANCH  50  68
ATOM     68  CB  SER A   7      19.941  35.290   0.369  0.00  0.00    +0.166 C 
BRANCH  68  69
ATOM     69  OG  SER A   7      19.937  33.959  -0.120  0.00  0.00    -0.380 OA
ATOM     70  H   SER A   7      20.567  33.411   0.412  0.00  0.00    +0.211 HD
ENDBRANCH  68  69
ENDBRANCH  50  68
ENDBRANCH  47  50
ENDBRANCH  45  46
BRANCH  45  71
ATOM     71  CB  LYS A   6      20.230  40.290  -0.300  0.00  0.00    +0.029 C 
BRANCH  71  72
ATOM     72  CG  LYS A   6      20.441  41.794  -0.479  0.00  0.00    +0.000 C 
BRANCH  72  73
ATOM     73  CD  LYS A   6      21.325  42.087  -1.685  0.00  0.00    -0.024 C 
BRANCH  73  74
ATOM     74  CE  LYS A   6      20.499  42.451  -2.911  0.00  0.00    -0.086 C 
BRANCH  74  75
ATOM     75  NZ  LYS A   6      20.511  41.365  -3.931  0.00  0.00    +0.380 N 
ATOM     76  HZ1 LYS A   6      20.115  40.497  -3.516  0.00  0.00    -0.089 HD
ATOM     77  HZ2 LYS A   6      21.489  41.189  -4.237  0.00  0.00    -0.089 HD
ATOM     78  HZ3 LYS A   6      19.937  41.653  -4.749  0.00  0.00    -0.089 HD
ENDBRANCH  74  75
ENDBRANCH  73  74
ENDBRANCH  72  73
ENDBRANCH  71  72
ENDBRANCH  45  71
ENDBRANCH  43  45
ENDBRANCH   1  41
BRANCH   1  79
ATOM     79  CB  ILE A   5      17.414  41.035   4.305  0.00  0.00    +0.027 C 
ATOM     80  CG2 ILE A   5      16.307  41.726   3.577  0.00  0.00    +0.002 C 
BRANCH  79  81
ATOM     81  CG1 ILE A   5      17.109  41.057   5.808  0.00  0.00    +0.002 C 
ATOM     82  CD1 ILE A   5      17.785  42.175   6.592  0.00  0.00    +0.000 C 
ENDBRANCH  79  81
ENDBRANCH   1  79
TORSDOF 36
REMARK  Name = ../refined-set-2016/1sbr/1sbr_pocket.pdb
REMARK  148 active torsions:
REMARK  status: ('A' for Active; 'I' for Inactive)
REMARK    1  A    between atoms: _1  and  _3
REMARK    2  A    between atoms: _3  and  _4
REMARK    3  A    between atoms: _3  and  _6
REMARK    4  A    between atoms: _6  and  _7
REMARK    5  A    between atoms: _13  and  _15
REMARK    6  A    between atoms: _15  and  _16
REMARK    7  A    between atoms: _15  and  _18
REMARK    8  A    between atoms: _18  and  _19
REMARK    9  A    between atoms: _19  and  _20
REMARK   10  A    between atoms: _20  and  _21
REMARK   11  A    between atoms: _30  and  _32
REMARK   12  A    between atoms: _32  and  _33
REMARK   13  A    between atoms: _32  and  _35
REMARK   14  A    between atoms: _35  and  _36
REMARK   15  A    between atoms: _42  and  _44
REMARK   16  A    between atoms: _44  and  _45
REMARK   17  A    between atoms: _44  and  _47
REMARK   18  A    between atoms: _47  and  _48
REMARK   19  A    between atoms: _50  and  _52
REMARK   20  A    between atoms: _52  and  _53
REMARK   21  A    between atoms: _52  and  _55
REMARK   22  A    between atoms: _55  and  _56
REMARK   23  A    between atoms: _59  and  _61
REMARK   24  A    between atoms: _61  and  _62
REMARK   25  A    between atoms: _61  and  _64
REMARK   26  A    between atoms: _64  and  _65
REMARK   27  A    between atoms: _70  and  _71
REMARK   28  A    between atoms: _74  and  _75
REMARK   29  A    between atoms: _80  and  _82
REMARK   30  A    between atoms: _82  and  _83
REMARK   31  A    between atoms: _82  and  _85
REMARK   32  A    between atoms: _85  and  _86
REMARK   33  A    between atoms: _92  and  _94
REMARK   34  A    between atoms: _94  and  _95
REMARK   35  A    between atoms: _94  and  _97
REMARK   36  A    between atoms: _97  and  _98
REMARK   37  A    between atoms: _101  and  _103
REMARK   38  A    between atoms: _103  and  _104
REMARK   39  A    between atoms: _103  and  _106
REMARK   40  A    between atoms: _106  and  _107
REMARK   41  A    between atoms: _109  and  _111
REMARK   42  A    between atoms: _111  and  _112
REMARK   43  A    between atoms: _111  and  _114
REMARK   44  A    between atoms: _117  and  _119
REMARK   45  A    between atoms: _119  and  _120
REMARK   46  A    between atoms: _119  and  _122
REMARK   47  A    between atoms: _122  and  _123
REMARK   48  A    between atoms: _126  and  _128
REMARK   49  A    between atoms: _128  and  _129
REMARK   50  A    between atoms: _128  and  _131
REMARK   51  A    between atoms: _131  and  _132
REMARK   52  A    between atoms: _132  and  _133
REMARK   53  A    between atoms: _133  and  _134
REMARK   54  A    between atoms: _134  and  _135
REMARK   55  A    between atoms: _139  and  _141
REMARK   56  A    between atoms: _141  and  _142
REMARK   57  A    between atoms: _141  and  _144
REMARK   58  A    between atoms: _144  and  _145
REMARK   59  A    between atoms: _147  and  _149
REMARK   60  A    between atoms: _149  and  _150
REMARK   61  A    between atoms: _153  and  _155
REMARK   62  A    between atoms: _155  and  _156
REMARK   63  A    between atoms: _155  and  _158
REMARK   64  A    between atoms: _158  and  _159
REMARK   65  A    between atoms: _162  and  _164
REMARK   66  A    between atoms: _164  and  _165
REMARK   67  A    between atoms: _164  and  _167
REMARK   68  A    between atoms: _167  and  _168
REMARK   69  A    between atoms: _168  and  _169
REMARK   70  A    between atoms: _169  and  _170
REMARK   71  A    between atoms: _170  and  _171
REMARK   72  A    between atoms: _175  and  _177
REMARK   73  A    between atoms: _177  and  _178
REMARK   74  A    between atoms: _177  and  _180
REMARK   75  A    between atoms: _180  and  _181
REMARK   76  A    between atoms: _184  and  _186
REMARK   77  A    between atoms: _186  and  _187
REMARK   78  A    between atoms: _186  and  _189
REMARK   79  A    between atoms: _189  and  _190
REMARK   80  A    between atoms: _193  and  _195
REMARK   81  A    between atoms: _195  and  _196
REMARK   82  A    between atoms: _195  and  _198
REMARK   83  A    between atoms: _198  and  _199
REMARK   84  A    between atoms: _204  and  _206
REMARK   85  A    between atoms: _206  and  _207
REMARK   86  A    between atoms: _206  and  _209
REMARK   87  A    between atoms: _209  and  _210
REMARK   88  A    between atoms: _213  and  _215
REMARK   89  A    between atoms: _215  and  _216
REMARK   90  A    between atoms: _215  and  _218
REMARK   91  A    between atoms: _218  and  _219
REMARK   92  A    between atoms: _221  and  _223
REMARK   93  A    between atoms: _223  and  _224
REMARK   94  A    between atoms: _223  and  _226
REMARK   95  A    between atoms: _226  and  _227
REMARK   96  A    between atoms: _230  and  _232
REMARK   97  A    between atoms: _232  and  _233
REMARK   98  A    between atoms: _232  and  _235
REMARK   99  A    between atoms: _238  and  _240
REMARK  100  A    between atoms: _240  and  _241
REMARK  101  A    between atoms: _240  and  _243
REMARK  102  A    between atoms: _243  and  _244
REMARK  103  A    between atoms: _247  and  _249
REMARK  104  A    between atoms: _249  and  _250
REMARK  105  A    between atoms: _249  and  _252
REMARK  106  A    between atoms: _252  and  _253
REMARK  107  A    between atoms: _256  and  _258
REMARK  108  A    between atoms: _258  and  _259
REMARK  109  A    between atoms: _258  and  _261
REMARK  110  A    between atoms: _264  and  _266
REMARK  111  A    between atoms: _266  and  _267
REMARK  112  A    between atoms: _266  and  _269
REMARK  113  A    between atoms: _269  and  _270
REMARK  114  A    between atoms: _270  and  _271
REMARK  115  A    between atoms: _273  and  _275
REMARK  116  A    between atoms: _275  and  _276
REMARK  117  A    between atoms: _275  and  _278
REMARK  118  A    between atoms: _278  and  _279
REMARK  119  A    between atoms: _284  and  _286
REMARK  120  A    between atoms: _286  and  _287
REMARK  121  A    between atoms: _286  and  _289
REMARK  122  A    between atoms: _289  and  _290
REMARK  123  A    between atoms: _290  and  _291
REMARK  124  A    between atoms: _293  and  _295
REMARK  125  A    between atoms: _295  and  _296
REMARK  126  A    between atoms: _295  and  _298
REMARK  127  A    between atoms: _298  and  _299
REMARK  128  A    between atoms: _304  and  _306
REMARK  129  A    between atoms: _306  and  _307
REMARK  130  A    between atoms: _306  and  _309
REMARK  131  A    between atoms: _312  and  _314
REMARK  132  A    between atoms: _314  and  _315
REMARK  133  A    between atoms: _314  and  _317
REMARK  134  A    between atoms: _317  and  _318
REMARK  135  A    between atoms: _318  and  _319
REMARK  136  A    between atoms: _324  and  _326
REMARK  137  A    between atoms: _326  and  _327
REMARK  138  A    between atoms: _326  and  _329
REMARK  139  A    between atoms: _329  and  _330
REMARK  140  A    between atoms: _335  and  _337
REMARK  141  A    between atoms: _337  and  _338
REMARK  142  A    between atoms: _337  and  _340
REMARK  143  A    between atoms: _340  and  _341
REMARK  144  A    between atoms: _343  and  _345
REMARK  145  A    between atoms: _345  and  _346
REMARK  146  A    between atoms: _345  and  _348
REMARK  147  A    between atoms: _348  and  _349
REMARK  148  A    between atoms: _352  and  _353
REMARK                            x       y       z     vdW  Elec       q    Type
REMARK                         _______ _______ _______ _____ _____    ______ ____
ROOT
ATOM      1  C   HIS A   4      14.613  49.949   5.975  0.00  0.00    +0.241 C 
ATOM      2  O   HIS A   4      15.326  49.573   6.893  0.00  0.00    -0.273 OA
ATOM      3  N   ILE A   5      13.295  49.794   5.984  0.00  0.00    -0.297 N 
ATOM      4  H   ILE A   5      12.737  50.044   5.143  0.00  0.00    +0.150 HD
ENDROOT
BRANCH   3   5
ATOM      5  CA  ILE A   5      12.627  49.273   7.173  0.00  0.00    +0.149 C 
BRANCH   5   6
ATOM      6  C   ILE A   5      11.871  47.988   6.913  0.00  0.00    +0.241 C 
ATOM      7  O   ILE A   5      12.016  47.064   7.673  0.00  0.00    -0.273 OA
ATOM      8  N   SER A   6      11.089  47.930   5.832  0.00  0.00    -0.295 N 
ATOM      9  H   SER A   6      11.120  48.713   5.148  0.00  0.00    +0.150 HD
BRANCH   8  10
ATOM     10  CA  SER A   6      10.191  46.806   5.576  0.00  0.00    +0.178 C 
BRANCH  10  11
ATOM     11  C   SER A   6      10.000  46.608   4.099  0.00  0.00    +0.243 C 
ATOM     12  N   THR A   7       9.379  45.488   3.749  0.00  0.00    -0.295 N 
ATOM     13  H   THR A   7       9.199  44.776   4.486  0.00  0.00    +0.150 HD
ATOM     14  O   SER A   6      10.441  47.427   3.290  0.00  0.00    -0.273 OA
BRANCH  12  15
ATOM     15  CA  THR A   7       8.932  45.197   2.383  0.00  0.00    +0.176 C 
BRANCH  15  16
ATOM     16  C   THR A   7       7.406  45.060   2.356  0.00  0.00    +0.243 C 
ATOM     17  O   THR A   7       6.799  44.519   3.277  0.00  0.00    -0.273 OA
ATOM     18  N   VAL A   8       6.803  45.537   1.282  0.00  0.00    -0.297 N 
ATOM     19  H   VAL A   8       7.356  46.053   0.568  0.00  0.00    +0.150 HD
BRANCH  18  20
ATOM     20  CA  VAL A   8       5.380  45.349   1.089  0.00  0.00    +0.149 C 
BRANCH  20  21
ATOM     21  C   VAL A   8       5.159  44.454  -0.115  0.00  0.00    +0.241 C 
ATOM     22  N   LEU A   9       4.273  43.475   0.040  0.00  0.00    -0.298 N 
ATOM     23  H   LEU A   9       3.900  43.289   0.993  0.00  0.00    +0.150 HD
ATOM     24  O   VAL A   8       5.789  44.636  -1.139  0.00  0.00    -0.273 OA
BRANCH  22  25
ATOM     25  CA  LEU A   9       3.802  42.652  -1.064  0.00  0.00    +0.137 C 
BRANCH  25  26
ATOM     26  C   LEU A   9       2.341  42.954  -1.245  0.00  0.00    +0.227 C 
ATOM     27  O   LEU A   9       1.600  43.026  -0.261  0.00  0.00    -0.286 OA
ENDBRANCH  25  26
BRANCH  25  28
ATOM     28  CB  LEU A   9       3.905  41.175  -0.725  0.00  0.00    +0.028 C 
BRANCH  28  29
ATOM     29  CG  LEU A   9       5.142  40.634  -0.002  0.00  0.00    +0.002 C 
ATOM     30  CD2 LEU A   9       5.030  39.084   0.122  0.00  0.00    +0.000 C 
ATOM     31  CD1 LEU A   9       6.423  41.040  -0.709  0.00  0.00    +0.000 C 
ENDBRANCH  28  29
ENDBRANCH  25  28
ENDBRANCH  22  25
ENDBRANCH  20  21
BRANCH  20  32
ATOM     32  CB  VAL A   8       4.584  46.712   0.990  0.00  0.00    +0.027 C 
ATOM     33  CG2 VAL A   8       3.089  46.475   0.843  0.00  0.00    +0.002 C 
ATOM     34  CG1 VAL A   8       5.092  47.535  -0.125  0.00  0.00    +0.002 C 
ENDBRANCH  20  32
ENDBRANCH  18  20
ENDBRANCH  15  16
BRANCH  15  35
ATOM     35  CB  THR A   7       9.580  43.868   1.871  0.00  0.00    +0.137 C 
ATOM     36  CG2 THR A   7       9.034  43.430   0.516  0.00  0.00    +0.034 C 
BRANCH  35  37
ATOM     37  OG1 THR A   7      10.951  44.105   1.592  0.00  0.00    -0.382 OA
ATOM     38  HG1 THR A   7      11.408  44.405   2.418  0.00  0.00    +0.210 HD
ENDBRANCH  35  37
ENDBRANCH  15  35
ENDBRANCH  12  15
ENDBRANCH  10  11
BRANCH  10  39
ATOM     39  CB  SER A   6       8.825  47.027   6.255  0.00  0.00    +0.166 C 
BRANCH  39  40
ATOM     40  OG  SER A   6       8.125  48.141   5.686  0.00  0.00    -0.380 OA
ATOM     41  H   SER A   6       8.666  48.962   5.799  0.00  0.00    +0.211 HD
ENDBRANCH  39  40
ENDBRANCH  10  39
ENDBRANCH   8  10
ENDBRANCH   5   6
BRANCH   5  42
ATOM     42  CB  ILE A   5      11.740  50.361   7.859  0.00  0.00    +0.027 C 
ATOM     43  CG2 ILE A   5      10.869  49.744   8.987  0.00  0.00    +0.002 C 
BRANCH  42  44
ATOM     44  CG1 ILE A   5      12.631  51.428   8.518  0.00  0.00    +0.002 C 
ATOM     45  CD1 ILE A   5      11.918  52.689   8.922  0.00  0.00    +0.000 C 
ENDBRANCH  42  44
ENDBRANCH   5  42
ENDBRANCH   3   5
BRANCH   1  46
ATOM     46  CA  HIS A   4      15.222  50.595   4.746  0.00  0.00    +0.155 C 
BRANCH  46  48
ATOM     47  C   ASP A   3      13.655  49.788   3.048  0.00  0.00    +0.241 C 
ATOM     48  N   HIS A   4      14.240  50.813   3.675  0.00  0.00    -0.297 N 
ATOM     49  H   HIS A   4      13.995  51.785   3.399  0.00  0.00    +0.150 HD
ATOM     50  O   ASP A   3      13.845  48.624   3.375  0.00  0.00    -0.273 OA
BRANCH  47  51
ATOM     51  CA  ASP A   3      12.727  50.089   1.867  0.00  0.00    +0.160 C 
BRANCH  51  53
ATOM     52  C   THR A   2      12.106  48.519   0.096  0.00  0.00    +0.243 C 
ATOM     53  N   ASP A   3      12.095  48.853   1.390  0.00  0.00    -0.296 N 
ATOM     54  H   ASP A   3      11.629  48.223   2.074  0.00  0.00    +0.150 HD
ATOM     55  O   THR A   2      12.506  49.277  -0.806  0.00  0.00    -0.273 OA
BRANCH  52  56
ATOM     56  CA  THR A   2      11.543  47.155  -0.269  0.00  0.00    +0.176 C 
BRANCH  56  59
ATOM     57  C   LYS A   1       9.409  47.249  -1.379  0.00  0.00    +0.238 C 
ATOM     58  O   LYS A   1       8.786  46.996  -0.358  0.00  0.00    -0.274 OA
ATOM     59  N   THR A   2      10.722  47.373  -1.421  0.00  0.00    -0.295 N 
ATOM     60  H   THR A   2      11.175  47.637  -2.319  0.00  0.00    +0.150 HD
BRANCH  57  61
ATOM     61  CA  LYS A   1       8.699  47.442  -2.700  0.00  0.00    +0.145 C 
BRANCH  61  62
ATOM     62  N   LYS A   1       7.932  46.245  -2.970  0.00  0.00    -0.238 NA
ATOM     63  H   LYS A   1       7.602  45.683  -2.159  0.00  0.00    +0.142 HD
ENDBRANCH  61  62
BRANCH  61  64
ATOM     64  CB  LYS A   1       7.795  48.678  -2.627  0.00  0.00    +0.026 C 
BRANCH  64  65
ATOM     65  CG  LYS A   1       8.517  49.943  -3.027  0.00  0.00    -0.000 C 
BRANCH  65  66
ATOM     66  CD  LYS A   1       8.133  51.114  -2.157  0.00  0.00    -0.024 C 
BRANCH  66  67
ATOM     67  CE  LYS A   1       8.070  52.363  -2.990  0.00  0.00    -0.086 C 
BRANCH  67  68
ATOM     68  NZ  LYS A   1       9.241  53.249  -2.761  0.00  0.00    +0.380 N 
ATOM     69  HZ1 LYS A   1       9.272  53.529  -1.760  0.00  0.00    -0.089 HD
ATOM     70  HZ2 LYS A   1      10.113  52.739  -3.007  0.00  0.00    -0.089 HD
ATOM     71  HZ3 LYS A   1       9.154  54.097  -3.356  0.00  0.00    -0.089 HD
ENDBRANCH  67  68
ENDBRANCH  66  67
ENDBRANCH  65  66
ENDBRANCH  64  65
ENDBRANCH  61  64
ENDBRANCH  57  61
ENDBRANCH  56  59
BRANCH  56  72
ATOM     72  CB  THR A   2      12.649  46.149  -0.671  0.00  0.00    +0.137 C 
ATOM     73  CG2 THR A   2      13.775  46.127   0.316  0.00  0.00    +0.034 C 
BRANCH  72  74
ATOM     74  OG1 THR A   2      12.109  44.822  -0.629  0.00  0.00    -0.382 OA
ATOM     75  HG1 THR A   2      11.794  44.624   0.288  0.00  0.00    +0.210 HD
ENDBRANCH  72  74
ENDBRANCH  56  72
ENDBRANCH  52  56
ENDBRANCH  51  53
BRANCH  51  76
ATOM     76  CB  ASP A   3      11.713  51.223   2.143  0.00  0.00    +0.143 C 
BRANCH  76  77
ATOM     77  CG  ASP A   3      10.735  50.899   3.263  0.00  0.00    +0.367 C 
ATOM     78  OD2 ASP A   3      11.170  50.521   4.362  0.00  0.00    -0.246 OA
ATOM     79  OD1 ASP A   3       9.495  51.014   3.139  0.00  0.00    -0.246 OA
ENDBRANCH  76  77
ENDBRANCH  51  76
ENDBRANCH  47  51
ENDBRANCH  46  48
BRANCH  46  80
ATOM     80  CB  HIS A   4      15.992  51.884   5.126  0.00  0.00    +0.076 C 
BRANCH  80  81
ATOM     81  CG  HIS A   4      15.119  52.999   5.617  0.00  0.00    +0.082 A 
ATOM     82  ND1 HIS A   4      15.378  53.691   6.781  0.00  0.00    -0.227 NA
ATOM     83  CE1 HIS A   4      14.458  54.622   6.953  0.00  0.00    +0.199 A 
ATOM     84  NE2 HIS A   4      13.608  54.559   5.944  0.00  0.00    -0.221 NA
ATOM     85  CD2 HIS A   4      14.005  53.562   5.087  0.00  0.00    +0.115 A 
ENDBRANCH  80  81
ENDBRANCH  46  80
ENDBRANCH   1  46
TORSDOF 38
REMARK  Name = ../refined-set-2016/1sbr/1sbr_pocket.pdb
REMARK  148 active torsions:
REMARK  status: ('A' for Active; 'I' for Inactive)
REMARK    1  A    between atoms: _1  and  _3
REMARK    2  A    between atoms: _3  and  _4
REMARK    3  A    between atoms: _3  and  _6
REMARK    4  A    between atoms: _6  and  _7
REMARK    5  A    between atoms: _13  and  _15
REMARK    6  A    between atoms: _15  and  _16
REMARK    7  A    between atoms: _15  and  _18
REMARK    8  A    between atoms: _18  and  _19
REMARK    9  A    between atoms: _19  and  _20
REMARK   10  A    between atoms: _20  and  _21
REMARK   11  A    between atoms: _30  and  _32
REMARK   12  A    between atoms: _32  and  _33
REMARK   13  A    between atoms: _32  and  _35
REMARK   14  A    between atoms: _35  and  _36
REMARK   15  A    between atoms: _42  and  _44
REMARK   16  A    between atoms: _44  and  _45
REMARK   17  A    between atoms: _44  and  _47
REMARK   18  A    between atoms: _47  and  _48
REMARK   19  A    between atoms: _50  and  _52
REMARK   20  A    between atoms: _52  and  _53
REMARK   21  A    between atoms: _52  and  _55
REMARK   22  A    between atoms: _55  and  _56
REMARK   23  A    between atoms: _59  and  _61
REMARK   24  A    between atoms: _61  and  _62
REMARK   25  A    between atoms: _61  and  _64
REMARK   26  A    between atoms: _64  and  _65
REMARK   27  A    between atoms: _70  and  _71
REMARK   28  A    between atoms: _74  and  _75
REMARK   29  A    between atoms: _80  and  _82
REMARK   30  A    between atoms: _82  and  _83
REMARK   31  A    between atoms: _82  and  _85
REMARK   32  A    between atoms: _85  and  _86
REMARK   33  A    between atoms: _92  and  _94
REMARK   34  A    between atoms: _94  and  _95
REMARK   35  A    between atoms: _94  and  _97
REMARK   36  A    between atoms: _97  and  _98
REMARK   37  A    between atoms: _101  and  _103
REMARK   38  A    between atoms: _103  and  _104
REMARK   39  A    between atoms: _103  and  _106
REMARK   40  A    between atoms: _106  and  _107
REMARK   41  A    between atoms: _109  and  _111
REMARK   42  A    between atoms: _111  and  _112
REMARK   43  A    between atoms: _111  and  _114
REMARK   44  A    between atoms: _117  and  _119
REMARK   45  A    between atoms: _119  and  _120
REMARK   46  A    between atoms: _119  and  _122
REMARK   47  A    between atoms: _122  and  _123
REMARK   48  A    between atoms: _126  and  _128
REMARK   49  A    between atoms: _128  and  _129
REMARK   50  A    between atoms: _128  and  _131
REMARK   51  A    between atoms: _131  and  _132
REMARK   52  A    between atoms: _132  and  _133
REMARK   53  A    between atoms: _133  and  _134
REMARK   54  A    between atoms: _134  and  _135
REMARK   55  A    between atoms: _139  and  _141
REMARK   56  A    between atoms: _141  and  _142
REMARK   57  A    between atoms: _141  and  _144
REMARK   58  A    between atoms: _144  and  _145
REMARK   59  A    between atoms: _147  and  _149
REMARK   60  A    between atoms: _149  and  _150
REMARK   61  A    between atoms: _153  and  _155
REMARK   62  A    between atoms: _155  and  _156
REMARK   63  A    between atoms: _155  and  _158
REMARK   64  A    between atoms: _158  and  _159
REMARK   65  A    between atoms: _162  and  _164
REMARK   66  A    between atoms: _164  and  _165
REMARK   67  A    between atoms: _164  and  _167
REMARK   68  A    between atoms: _167  and  _168
REMARK   69  A    between atoms: _168  and  _169
REMARK   70  A    between atoms: _169  and  _170
REMARK   71  A    between atoms: _170  and  _171
REMARK   72  A    between atoms: _175  and  _177
REMARK   73  A    between atoms: _177  and  _178
REMARK   74  A    between atoms: _177  and  _180
REMARK   75  A    between atoms: _180  and  _181
REMARK   76  A    between atoms: _184  and  _186
REMARK   77  A    between atoms: _186  and  _187
REMARK   78  A    between atoms: _186  and  _189
REMARK   79  A    between atoms: _189  and  _190
REMARK   80  A    between atoms: _193  and  _195
REMARK   81  A    between atoms: _195  and  _196
REMARK   82  A    between atoms: _195  and  _198
REMARK   83  A    between atoms: _198  and  _199
REMARK   84  A    between atoms: _204  and  _206
REMARK   85  A    between atoms: _206  and  _207
REMARK   86  A    between atoms: _206  and  _209
REMARK   87  A    between atoms: _209  and  _210
REMARK   88  A    between atoms: _213  and  _215
REMARK   89  A    between atoms: _215  and  _216
REMARK   90  A    between atoms: _215  and  _218
REMARK   91  A    between atoms: _218  and  _219
REMARK   92  A    between atoms: _221  and  _223
REMARK   93  A    between atoms: _223  and  _224
REMARK   94  A    between atoms: _223  and  _226
REMARK   95  A    between atoms: _226  and  _227
REMARK   96  A    between atoms: _230  and  _232
REMARK   97  A    between atoms: _232  and  _233
REMARK   98  A    between atoms: _232  and  _235
REMARK   99  A    between atoms: _238  and  _240
REMARK  100  A    between atoms: _240  and  _241
REMARK  101  A    between atoms: _240  and  _243
REMARK  102  A    between atoms: _243  and  _244
REMARK  103  A    between atoms: _247  and  _249
REMARK  104  A    between atoms: _249  and  _250
REMARK  105  A    between atoms: _249  and  _252
REMARK  106  A    between atoms: _252  and  _253
REMARK  107  A    between atoms: _256  and  _258
REMARK  108  A    between atoms: _258  and  _259
REMARK  109  A    between atoms: _258  and  _261
REMARK  110  A    between atoms: _264  and  _266
REMARK  111  A    between atoms: _266  and  _267
REMARK  112  A    between atoms: _266  and  _269
REMARK  113  A    between atoms: _269  and  _270
REMARK  114  A    between atoms: _270  and  _271
REMARK  115  A    between atoms: _273  and  _275
REMARK  116  A    between atoms: _275  and  _276
REMARK  117  A    between atoms: _275  and  _278
REMARK  118  A    between atoms: _278  and  _279
REMARK  119  A    between atoms: _284  and  _286
REMARK  120  A    between atoms: _286  and  _287
REMARK  121  A    between atoms: _286  and  _289
REMARK  122  A    between atoms: _289  and  _290
REMARK  123  A    between atoms: _290  and  _291
REMARK  124  A    between atoms: _293  and  _295
REMARK  125  A    between atoms: _295  and  _296
REMARK  126  A    between atoms: _295  and  _298
REMARK  127  A    between atoms: _298  and  _299
REMARK  128  A    between atoms: _304  and  _306
REMARK  129  A    between atoms: _306  and  _307
REMARK  130  A    between atoms: _306  and  _309
REMARK  131  A    between atoms: _312  and  _314
REMARK  132  A    between atoms: _314  and  _315
REMARK  133  A    between atoms: _314  and  _317
REMARK  134  A    between atoms: _317  and  _318
REMARK  135  A    between atoms: _318  and  _319
REMARK  136  A    between atoms: _324  and  _326
REMARK  137  A    between atoms: _326  and  _327
REMARK  138  A    between atoms: _326  and  _329
REMARK  139  A    between atoms: _329  and  _330
REMARK  140  A    between atoms: _335  and  _337
REMARK  141  A    between atoms: _337  and  _338
REMARK  142  A    between atoms: _337  and  _340
REMARK  143  A    between atoms: _340  and  _341
REMARK  144  A    between atoms: _343  and  _345
REMARK  145  A    between atoms: _345  and  _346
REMARK  146  A    between atoms: _345  and  _348
REMARK  147  A    between atoms: _348  and  _349
REMARK  148  A    between atoms: _352  and  _353
REMARK                            x       y       z     vdW  Elec       q    Type
REMARK                         _______ _______ _______ _____ _____    ______ ____
ROOT
ATOM      1  CA  ILE A   1      10.287  34.070   1.917  0.00  0.00    +0.133 C 
ENDROOT
BRANCH   1   2
ATOM      2  N   ILE A   1       9.282  33.241   1.244  0.00  0.00    -0.239 NA
ATOM      3  H   ILE A   1       8.384  33.658   0.925  0.00  0.00    +0.142 HD
ENDBRANCH   1   2
BRANCH   1   4
ATOM      4  C   ILE A   1      10.682  33.496   3.286  0.00  0.00    +0.224 C 
ATOM      5  O   ILE A   1      11.890  33.404   3.611  0.00  0.00    -0.287 OA
ENDBRANCH   1   4
BRANCH   1   6
ATOM      6  CB  ILE A   1       9.824  35.539   2.007  0.00  0.00    +0.023 C 
ATOM      7  CG2 ILE A   1      10.823  36.372   2.797  0.00  0.00    +0.002 C 
BRANCH   6   8
ATOM      8  CG1 ILE A   1       9.603  36.110   0.596  0.00  0.00    +0.002 C 
ATOM      9  CD1 ILE A   1       8.587  37.298   0.534  0.00  0.00    +0.000 C 
ENDBRANCH   6   8
ENDBRANCH   1   6
TORSDOF 4
REMARK  Name = ../refined-set-2016/1sbr/1sbr_pocket.pdb
REMARK  148 active torsions:
REMARK  status: ('A' for Active; 'I' for Inactive)
REMARK    1  A    between atoms: _1  and  _3
REMARK    2  A    between atoms: _3  and  _4
REMARK    3  A    between atoms: _3  and  _6
REMARK    4  A    between atoms: _6  and  _7
REMARK    5  A    between atoms: _13  and  _15
REMARK    6  A    between atoms: _15  and  _16
REMARK    7  A    between atoms: _15  and  _18
REMARK    8  A    between atoms: _18  and  _19
REMARK    9  A    between atoms: _19  and  _20
REMARK   10  A    between atoms: _20  and  _21
REMARK   11  A    between atoms: _30  and  _32
REMARK   12  A    between atoms: _32  and  _33
REMARK   13  A    between atoms: _32  and  _35
REMARK   14  A    between atoms: _35  and  _36
REMARK   15  A    between atoms: _42  and  _44
REMARK   16  A    between atoms: _44  and  _45
REMARK   17  A    between atoms: _44  and  _47
REMARK   18  A    between atoms: _47  and  _48
REMARK   19  A    between atoms: _50  and  _52
REMARK   20  A    between atoms: _52  and  _53
REMARK   21  A    between atoms: _52  and  _55
REMARK   22  A    between atoms: _55  and  _56
REMARK   23  A    between atoms: _59  and  _61
REMARK   24  A    between atoms: _61  and  _62
REMARK   25  A    between atoms: _61  and  _64
REMARK   26  A    between atoms: _64  and  _65
REMARK   27  A    between atoms: _70  and  _71
REMARK   28  A    between atoms: _74  and  _75
REMARK   29  A    between atoms: _80  and  _82
REMARK   30  A    between atoms: _82  and  _83
REMARK   31  A    between atoms: _82  and  _85
REMARK   32  A    between atoms: _85  and  _86
REMARK   33  A    between atoms: _92  and  _94
REMARK   34  A    between atoms: _94  and  _95
REMARK   35  A    between atoms: _94  and  _97
REMARK   36  A    between atoms: _97  and  _98
REMARK   37  A    between atoms: _101  and  _103
REMARK   38  A    between atoms: _103  and  _104
REMARK   39  A    between atoms: _103  and  _106
REMARK   40  A    between atoms: _106  and  _107
REMARK   41  A    between atoms: _109  and  _111
REMARK   42  A    between atoms: _111  and  _112
REMARK   43  A    between atoms: _111  and  _114
REMARK   44  A    between atoms: _117  and  _119
REMARK   45  A    between atoms: _119  and  _120
REMARK   46  A    between atoms: _119  and  _122
REMARK   47  A    between atoms: _122  and  _123
REMARK   48  A    between atoms: _126  and  _128
REMARK   49  A    between atoms: _128  and  _129
REMARK   50  A    between atoms: _128  and  _131
REMARK   51  A    between atoms: _131  and  _132
REMARK   52  A    between atoms: _132  and  _133
REMARK   53  A    between atoms: _133  and  _134
REMARK   54  A    between atoms: _134  and  _135
REMARK   55  A    between atoms: _139  and  _141
REMARK   56  A    between atoms: _141  and  _142
REMARK   57  A    between atoms: _141  and  _144
REMARK   58  A    between atoms: _144  and  _145
REMARK   59  A    between atoms: _147  and  _149
REMARK   60  A    between atoms: _149  and  _150
REMARK   61  A    between atoms: _153  and  _155
REMARK   62  A    between atoms: _155  and  _156
REMARK   63  A    between atoms: _155  and  _158
REMARK   64  A    between atoms: _158  and  _159
REMARK   65  A    between atoms: _162  and  _164
REMARK   66  A    between atoms: _164  and  _165
REMARK   67  A    between atoms: _164  and  _167
REMARK   68  A    between atoms: _167  and  _168
REMARK   69  A    between atoms: _168  and  _169
REMARK   70  A    between atoms: _169  and  _170
REMARK   71  A    between atoms: _170  and  _171
REMARK   72  A    between atoms: _175  and  _177
REMARK   73  A    between atoms: _177  and  _178
REMARK   74  A    between atoms: _177  and  _180
REMARK   75  A    between atoms: _180  and  _181
REMARK   76  A    between atoms: _184  and  _186
REMARK   77  A    between atoms: _186  and  _187
REMARK   78  A    between atoms: _186  and  _189
REMARK   79  A    between atoms: _189  and  _190
REMARK   80  A    between atoms: _193  and  _195
REMARK   81  A    between atoms: _195  and  _196
REMARK   82  A    between atoms: _195  and  _198
REMARK   83  A    between atoms: _198  and  _199
REMARK   84  A    between atoms: _204  and  _206
REMARK   85  A    between atoms: _206  and  _207
REMARK   86  A    between atoms: _206  and  _209
REMARK   87  A    between atoms: _209  and  _210
REMARK   88  A    between atoms: _213  and  _215
REMARK   89  A    between atoms: _215  and  _216
REMARK   90  A    between atoms: _215  and  _218
REMARK   91  A    between atoms: _218  and  _219
REMARK   92  A    between atoms: _221  and  _223
REMARK   93  A    between atoms: _223  and  _224
REMARK   94  A    between atoms: _223  and  _226
REMARK   95  A    between atoms: _226  and  _227
REMARK   96  A    between atoms: _230  and  _232
REMARK   97  A    between atoms: _232  and  _233
REMARK   98  A    between atoms: _232  and  _235
REMARK   99  A    between atoms: _238  and  _240
REMARK  100  A    between atoms: _240  and  _241
REMARK  101  A    between atoms: _240  and  _243
REMARK  102  A    between atoms: _243  and  _244
REMARK  103  A    between atoms: _247  and  _249
REMARK  104  A    between atoms: _249  and  _250
REMARK  105  A    between atoms: _249  and  _252
REMARK  106  A    between atoms: _252  and  _253
REMARK  107  A    between atoms: _256  and  _258
REMARK  108  A    between atoms: _258  and  _259
REMARK  109  A    between atoms: _258  and  _261
REMARK  110  A    between atoms: _264  and  _266
REMARK  111  A    between atoms: _266  and  _267
REMARK  112  A    between atoms: _266  and  _269
REMARK  113  A    between atoms: _269  and  _270
REMARK  114  A    between atoms: _270  and  _271
REMARK  115  A    between atoms: _273  and  _275
REMARK  116  A    between atoms: _275  and  _276
REMARK  117  A    between atoms: _275  and  _278
REMARK  118  A    between atoms: _278  and  _279
REMARK  119  A    between atoms: _284  and  _286
REMARK  120  A    between atoms: _286  and  _287
REMARK  121  A    between atoms: _286  and  _289
REMARK  122  A    between atoms: _289  and  _290
REMARK  123  A    between atoms: _290  and  _291
REMARK  124  A    between atoms: _293  and  _295
REMARK  125  A    between atoms: _295  and  _296
REMARK  126  A    between atoms: _295  and  _298
REMARK  127  A    between atoms: _298  and  _299
REMARK  128  A    between atoms: _304  and  _306
REMARK  129  A    between atoms: _306  and  _307
REMARK  130  A    between atoms: _306  and  _309
REMARK  131  A    between atoms: _312  and  _314
REMARK  132  A    between atoms: _314  and  _315
REMARK  133  A    between atoms: _314  and  _317
REMARK  134  A    between atoms: _317  and  _318
REMARK  135  A    between atoms: _318  and  _319
REMARK  136  A    between atoms: _324  and  _326
REMARK  137  A    between atoms: _326  and  _327
REMARK  138  A    between atoms: _326  and  _329
REMARK  139  A    between atoms: _329  and  _330
REMARK  140  A    between atoms: _335  and  _337
REMARK  141  A    between atoms: _337  and  _338
REMARK  142  A    between atoms: _337  and  _340
REMARK  143  A    between atoms: _340  and  _341
REMARK  144  A    between atoms: _343  and  _345
REMARK  145  A    between atoms: _345  and  _346
REMARK  146  A    between atoms: _345  and  _348
REMARK  147  A    between atoms: _348  and  _349
REMARK  148  A    between atoms: _352  and  _353
REMARK                            x       y       z     vdW  Elec       q    Type
REMARK                         _______ _______ _______ _____ _____    ______ ____
ROOT
ATOM      1  C   UNK A   2       9.595  37.438  10.013  0.00  0.00    +0.000 C 
ENDROOT
BRANCH   1   3
ATOM      2  C   VAL A   1      11.725  37.115  11.214  0.00  0.00    +0.000 C 
ATOM      3  N   UNK A   2      10.512  36.668  10.867  0.00  0.00    +0.000 N 
ATOM      4  H   UNK A   2      10.205  35.738  11.216  0.00  0.00    +0.000 HD
ATOM      5  O   VAL A   1      12.355  37.955  10.572  0.00  0.00    +0.000 OA
BRANCH   2   6
ATOM      6  CA  VAL A   1      12.361  36.446  12.424  0.00  0.00    +0.000 C 
BRANCH   6   7
ATOM      7  CB  VAL A   1      12.186  37.237  13.711  0.00  0.00    +0.000 C 
ATOM      8  CG2 VAL A   1      12.436  36.301  14.918  0.00  0.00    +0.000 C 
ATOM      9  CG1 VAL A   1      10.807  37.865  13.774  0.00  0.00    +0.000 C 
ENDBRANCH   6   7
BRANCH   6  10
ATOM     10  N   VAL A   1      13.750  36.194  12.175  0.00  0.00    +0.000 NA
ATOM     11  H   VAL A   1      14.398  36.988  11.999  0.00  0.00    +0.000 HD
ENDBRANCH   6  10
ENDBRANCH   2   6
ENDBRANCH   1   3
BRANCH   1  12
ATOM     12  C   UNK A   2       8.500  38.064  10.864  0.00  0.00    +0.000 C 
ATOM     13  N   ASN A   3       8.368  39.378  10.791  0.00  0.00    +0.000 N 
ATOM     14  H   ASN A   3       8.980  39.903  10.133  0.00  0.00    +0.000 HD
ATOM     15  O   UNK A   2       7.801  37.371  11.556  0.00  0.00    +0.000 OA
BRANCH  13  16
ATOM     16  CA  ASN A   3       7.406  40.123  11.589  0.00  0.00    +0.000 C 
BRANCH  16  17
ATOM     17  C   ASN A   3       6.729  41.107  10.641  0.00  0.00    +0.000 C 
ATOM     18  O   ASN A   3       7.416  41.868   9.969  0.00  0.00    +0.000 OA
ENDBRANCH  16  17
BRANCH  16  19
ATOM     19  CB  ASN A   3       8.125  40.849  12.728  0.00  0.00    +0.000 C 
BRANCH  19  20
ATOM     20  CG  ASN A   3       7.165  41.489  13.747  0.00  0.00    +0.000 C 
ATOM     21  OD1 ASN A   3       7.295  41.311  14.966  0.00  0.00    +0.000 OA
ATOM     22  ND2 ASN A   3       6.257  42.259  13.263  0.00  0.00    +0.000 N 
ATOM     23 HD21 ASN A   3       5.603  42.756  13.901  0.00  0.00    +0.000 HD
ATOM     24 HD22 ASN A   3       6.177  42.385  12.234  0.00  0.00    +0.000 HD
ENDBRANCH  19  20
ENDBRANCH  16  19
ENDBRANCH  13  16
ENDBRANCH   1  12
BRANCH   1  25
ATOM     25  C   UNK A   2       8.978  36.567   8.920  0.00  0.00    +0.000 C 
BRANCH  25  26
ATOM     26  C   UNK A   2       7.808  37.201   8.202  0.00  0.00    +0.000 C 
BRANCH  26  27
ATOM     27 SE   UNK A   2       7.067  35.978   6.876  0.00  0.00    +0.000 Se
ATOM     28  C   UNK A   2       8.348  36.411   5.583  0.00  0.00    +0.000 C 
ENDBRANCH  26  27
ENDBRANCH  25  26
ENDBRANCH   1  25
TORSDOF 12
REMARK  Name = ../refined-set-2016/1sbr/1sbr_pocket.pdb
REMARK  148 active torsions:
REMARK  status: ('A' for Active; 'I' for Inactive)
REMARK    1  A    between atoms: _1  and  _3
REMARK    2  A    between atoms: _3  and  _4
REMARK    3  A    between atoms: _3  and  _6
REMARK    4  A    between atoms: _6  and  _7
REMARK    5  A    between atoms: _13  and  _15
REMARK    6  A    between atoms: _15  and  _16
REMARK    7  A    between atoms: _15  and  _18
REMARK    8  A    between atoms: _18  and  _19
REMARK    9  A    between atoms: _19  and  _20
REMARK   10  A    between atoms: _20  and  _21
REMARK   11  A    between atoms: _30  and  _32
REMARK   12  A    between atoms: _32  and  _33
REMARK   13  A    between atoms: _32  and  _35
REMARK   14  A    between atoms: _35  and  _36
REMARK   15  A    between atoms: _42  and  _44
REMARK   16  A    between atoms: _44  and  _45
REMARK   17  A    between atoms: _44  and  _47
REMARK   18  A    between atoms: _47  and  _48
REMARK   19  A    between atoms: _50  and  _52
REMARK   20  A    between atoms: _52  and  _53
REMARK   21  A    between atoms: _52  and  _55
REMARK   22  A    between atoms: _55  and  _56
REMARK   23  A    between atoms: _59  and  _61
REMARK   24  A    between atoms: _61  and  _62
REMARK   25  A    between atoms: _61  and  _64
REMARK   26  A    between atoms: _64  and  _65
REMARK   27  A    between atoms: _70  and  _71
REMARK   28  A    between atoms: _74  and  _75
REMARK   29  A    between atoms: _80  and  _82
REMARK   30  A    between atoms: _82  and  _83
REMARK   31  A    between atoms: _82  and  _85
REMARK   32  A    between atoms: _85  and  _86
REMARK   33  A    between atoms: _92  and  _94
REMARK   34  A    between atoms: _94  and  _95
REMARK   35  A    between atoms: _94  and  _97
REMARK   36  A    between atoms: _97  and  _98
REMARK   37  A    between atoms: _101  and  _103
REMARK   38  A    between atoms: _103  and  _104
REMARK   39  A    between atoms: _103  and  _106
REMARK   40  A    between atoms: _106  and  _107
REMARK   41  A    between atoms: _109  and  _111
REMARK   42  A    between atoms: _111  and  _112
REMARK   43  A    between atoms: _111  and  _114
REMARK   44  A    between atoms: _117  and  _119
REMARK   45  A    between atoms: _119  and  _120
REMARK   46  A    between atoms: _119  and  _122
REMARK   47  A    between atoms: _122  and  _123
REMARK   48  A    between atoms: _126  and  _128
REMARK   49  A    between atoms: _128  and  _129
REMARK   50  A    between atoms: _128  and  _131
REMARK   51  A    between atoms: _131  and  _132
REMARK   52  A    between atoms: _132  and  _133
REMARK   53  A    between atoms: _133  and  _134
REMARK   54  A    between atoms: _134  and  _135
REMARK   55  A    between atoms: _139  and  _141
REMARK   56  A    between atoms: _141  and  _142
REMARK   57  A    between atoms: _141  and  _144
REMARK   58  A    between atoms: _144  and  _145
REMARK   59  A    between atoms: _147  and  _149
REMARK   60  A    between atoms: _149  and  _150
REMARK   61  A    between atoms: _153  and  _155
REMARK   62  A    between atoms: _155  and  _156
REMARK   63  A    between atoms: _155  and  _158
REMARK   64  A    between atoms: _158  and  _159
REMARK   65  A    between atoms: _162  and  _164
REMARK   66  A    between atoms: _164  and  _165
REMARK   67  A    between atoms: _164  and  _167
REMARK   68  A    between atoms: _167  and  _168
REMARK   69  A    between atoms: _168  and  _169
REMARK   70  A    between atoms: _169  and  _170
REMARK   71  A    between atoms: _170  and  _171
REMARK   72  A    between atoms: _175  and  _177
REMARK   73  A    between atoms: _177  and  _178
REMARK   74  A    between atoms: _177  and  _180
REMARK   75  A    between atoms: _180  and  _181
REMARK   76  A    between atoms: _184  and  _186
REMARK   77  A    between atoms: _186  and  _187
REMARK   78  A    between atoms: _186  and  _189
REMARK   79  A    between atoms: _189  and  _190
REMARK   80  A    between atoms: _193  and  _195
REMARK   81  A    between atoms: _195  and  _196
REMARK   82  A    between atoms: _195  and  _198
REMARK   83  A    between atoms: _198  and  _199
REMARK   84  A    between atoms: _204  and  _206
REMARK   85  A    between atoms: _206  and  _207
REMARK   86  A    between atoms: _206  and  _209
REMARK   87  A    between atoms: _209  and  _210
REMARK   88  A    between atoms: _213  and  _215
REMARK   89  A    between atoms: _215  and  _216
REMARK   90  A    between atoms: _215  and  _218
REMARK   91  A    between atoms: _218  and  _219
REMARK   92  A    between atoms: _221  and  _223
REMARK   93  A    between atoms: _223  and  _224
REMARK   94  A    between atoms: _223  and  _226
REMARK   95  A    between atoms: _226  and  _227
REMARK   96  A    between atoms: _230  and  _232
REMARK   97  A    between atoms: _232  and  _233
REMARK   98  A    between atoms: _232  and  _235
REMARK   99  A    between atoms: _238  and  _240
REMARK  100  A    between atoms: _240  and  _241
REMARK  101  A    between atoms: _240  and  _243
REMARK  102  A    between atoms: _243  and  _244
REMARK  103  A    between atoms: _247  and  _249
REMARK  104  A    between atoms: _249  and  _250
REMARK  105  A    between atoms: _249  and  _252
REMARK  106  A    between atoms: _252  and  _253
REMARK  107  A    between atoms: _256  and  _258
REMARK  108  A    between atoms: _258  and  _259
REMARK  109  A    between atoms: _258  and  _261
REMARK  110  A    between atoms: _264  and  _266
REMARK  111  A    between atoms: _266  and  _267
REMARK  112  A    between atoms: _266  and  _269
REMARK  113  A    between atoms: _269  and  _270
REMARK  114  A    between atoms: _270  and  _271
REMARK  115  A    between atoms: _273  and  _275
REMARK  116  A    between atoms: _275  and  _276
REMARK  117  A    between atoms: _275  and  _278
REMARK  118  A    between atoms: _278  and  _279
REMARK  119  A    between atoms: _284  and  _286
REMARK  120  A    between atoms: _286  and  _287
REMARK  121  A    between atoms: _286  and  _289
REMARK  122  A    between atoms: _289  and  _290
REMARK  123  A    between atoms: _290  and  _291
REMARK  124  A    between atoms: _293  and  _295
REMARK  125  A    between atoms: _295  and  _296
REMARK  126  A    between atoms: _295  and  _298
REMARK  127  A    between atoms: _298  and  _299
REMARK  128  A    between atoms: _304  and  _306
REMARK  129  A    between atoms: _306  and  _307
REMARK  130  A    between atoms: _306  and  _309
REMARK  131  A    between atoms: _312  and  _314
REMARK  132  A    between atoms: _314  and  _315
REMARK  133  A    between atoms: _314  and  _317
REMARK  134  A    between atoms: _317  and  _318
REMARK  135  A    between atoms: _318  and  _319
REMARK  136  A    between atoms: _324  and  _326
REMARK  137  A    between atoms: _326  and  _327
REMARK  138  A    between atoms: _326  and  _329
REMARK  139  A    between atoms: _329  and  _330
REMARK  140  A    between atoms: _335  and  _337
REMARK  141  A    between atoms: _337  and  _338
REMARK  142  A    between atoms: _337  and  _340
REMARK  143  A    between atoms: _340  and  _341
REMARK  144  A    between atoms: _343  and  _345
REMARK  145  A    between atoms: _345  and  _346
REMARK  146  A    between atoms: _345  and  _348
REMARK  147  A    between atoms: _348  and  _349
REMARK  148  A    between atoms: _352  and  _353
REMARK                            x       y       z     vdW  Elec       q    Type
REMARK                         _______ _______ _______ _____ _____    ______ ____
ROOT
ATOM      1  CA  UNL     1      21.302  42.196  13.988  0.00  0.00    +0.000 C 
ENDROOT
BRANCH   1   2
ATOM      2  N   UNL     1      20.696  42.737  15.202  0.00  0.00    +0.000 NA
ATOM      3  H   UNL     1      20.515  43.760  15.255  0.00  0.00    +0.000 HD
ENDBRANCH   1   2
BRANCH   1   4
ATOM      4  C   UNL     1      22.769  41.877  14.200  0.00  0.00    +0.000 C 
ATOM      5  O   UNL     1      23.647  42.549  13.660  0.00  0.00    +0.000 OA
ENDBRANCH   1   4
BRANCH   1   6
ATOM      6  C   UNL     1      21.125  43.170  12.832  0.00  0.00    +0.000 C 
BRANCH   6   7
ATOM      7  C   UNL     1      20.082  42.655  11.880  0.00  0.00    +0.000 C 
BRANCH   7   8
ATOM      8 SE   UNL     1      18.273  42.764  12.575  0.00  0.00    +0.000 Se
ATOM      9  C   UNL     1      18.101  41.453  13.448  0.00  0.00    +0.000 C 
ENDBRANCH   7   8
ENDBRANCH   6   7
ENDBRANCH   1   6
TORSDOF 5
REMARK  Name = ../refined-set-2016/1sbr/1sbr_pocket.pdb
REMARK  148 active torsions:
REMARK  status: ('A' for Active; 'I' for Inactive)
REMARK    1  A    between atoms: _1  and  _3
REMARK    2  A    between atoms: _3  and  _4
REMARK    3  A    between atoms: _3  and  _6
REMARK    4  A    between atoms: _6  and  _7
REMARK    5  A    between atoms: _13  and  _15
REMARK    6  A    between atoms: _15  and  _16
REMARK    7  A    between atoms: _15  and  _18
REMARK    8  A    between atoms: _18  and  _19
REMARK    9  A    between atoms: _19  and  _20
REMARK   10  A    between atoms: _20  and  _21
REMARK   11  A    between atoms: _30  and  _32
REMARK   12  A    between atoms: _32  and  _33
REMARK   13  A    between atoms: _32  and  _35
REMARK   14  A    between atoms: _35  and  _36
REMARK   15  A    between atoms: _42  and  _44
REMARK   16  A    between atoms: _44  and  _45
REMARK   17  A    between atoms: _44  and  _47
REMARK   18  A    between atoms: _47  and  _48
REMARK   19  A    between atoms: _50  and  _52
REMARK   20  A    between atoms: _52  and  _53
REMARK   21  A    between atoms: _52  and  _55
REMARK   22  A    between atoms: _55  and  _56
REMARK   23  A    between atoms: _59  and  _61
REMARK   24  A    between atoms: _61  and  _62
REMARK   25  A    between atoms: _61  and  _64
REMARK   26  A    between atoms: _64  and  _65
REMARK   27  A    between atoms: _70  and  _71
REMARK   28  A    between atoms: _74  and  _75
REMARK   29  A    between atoms: _80  and  _82
REMARK   30  A    between atoms: _82  and  _83
REMARK   31  A    between atoms: _82  and  _85
REMARK   32  A    between atoms: _85  and  _86
REMARK   33  A    between atoms: _92  and  _94
REMARK   34  A    between atoms: _94  and  _95
REMARK   35  A    between atoms: _94  and  _97
REMARK   36  A    between atoms: _97  and  _98
REMARK   37  A    between atoms: _101  and  _103
REMARK   38  A    between atoms: _103  and  _104
REMARK   39  A    between atoms: _103  and  _106
REMARK   40  A    between atoms: _106  and  _107
REMARK   41  A    between atoms: _109  and  _111
REMARK   42  A    between atoms: _111  and  _112
REMARK   43  A    between atoms: _111  and  _114
REMARK   44  A    between atoms: _117  and  _119
REMARK   45  A    between atoms: _119  and  _120
REMARK   46  A    between atoms: _119  and  _122
REMARK   47  A    between atoms: _122  and  _123
REMARK   48  A    between atoms: _126  and  _128
REMARK   49  A    between atoms: _128  and  _129
REMARK   50  A    between atoms: _128  and  _131
REMARK   51  A    between atoms: _131  and  _132
REMARK   52  A    between atoms: _132  and  _133
REMARK   53  A    between atoms: _133  and  _134
REMARK   54  A    between atoms: _134  and  _135
REMARK   55  A    between atoms: _139  and  _141
REMARK   56  A    between atoms: _141  and  _142
REMARK   57  A    between atoms: _141  and  _144
REMARK   58  A    between atoms: _144  and  _145
REMARK   59  A    between atoms: _147  and  _149
REMARK   60  A    between atoms: _149  and  _150
REMARK   61  A    between atoms: _153  and  _155
REMARK   62  A    between atoms: _155  and  _156
REMARK   63  A    between atoms: _155  and  _158
REMARK   64  A    between atoms: _158  and  _159
REMARK   65  A    between atoms: _162  and  _164
REMARK   66  A    between atoms: _164  and  _165
REMARK   67  A    between atoms: _164  and  _167
REMARK   68  A    between atoms: _167  and  _168
REMARK   69  A    between atoms: _168  and  _169
REMARK   70  A    between atoms: _169  and  _170
REMARK   71  A    between atoms: _170  and  _171
REMARK   72  A    between atoms: _175  and  _177
REMARK   73  A    between atoms: _177  and  _178
REMARK   74  A    between atoms: _177  and  _180
REMARK   75  A    between atoms: _180  and  _181
REMARK   76  A    between atoms: _184  and  _186
REMARK   77  A    between atoms: _186  and  _187
REMARK   78  A    between atoms: _186  and  _189
REMARK   79  A    between atoms: _189  and  _190
REMARK   80  A    between atoms: _193  and  _195
REMARK   81  A    between atoms: _195  and  _196
REMARK   82  A    between atoms: _195  and  _198
REMARK   83  A    between atoms: _198  and  _199
REMARK   84  A    between atoms: _204  and  _206
REMARK   85  A    between atoms: _206  and  _207
REMARK   86  A    between atoms: _206  and  _209
REMARK   87  A    between atoms: _209  and  _210
REMARK   88  A    between atoms: _213  and  _215
REMARK   89  A    between atoms: _215  and  _216
REMARK   90  A    between atoms: _215  and  _218
REMARK   91  A    between atoms: _218  and  _219
REMARK   92  A    between atoms: _221  and  _223
REMARK   93  A    between atoms: _223  and  _224
REMARK   94  A    between atoms: _223  and  _226
REMARK   95  A    between atoms: _226  and  _227
REMARK   96  A    between atoms: _230  and  _232
REMARK   97  A    between atoms: _232  and  _233
REMARK   98  A    between atoms: _232  and  _235
REMARK   99  A    between atoms: _238  and  _240
REMARK  100  A    between atoms: _240  and  _241
REMARK  101  A    between atoms: _240  and  _243
REMARK  102  A    between atoms: _243  and  _244
REMARK  103  A    between atoms: _247  and  _249
REMARK  104  A    between atoms: _249  and  _250
REMARK  105  A    between atoms: _249  and  _252
REMARK  106  A    between atoms: _252  and  _253
REMARK  107  A    between atoms: _256  and  _258
REMARK  108  A    between atoms: _258  and  _259
REMARK  109  A    between atoms: _258  and  _261
REMARK  110  A    between atoms: _264  and  _266
REMARK  111  A    between atoms: _266  and  _267
REMARK  112  A    between atoms: _266  and  _269
REMARK  113  A    between atoms: _269  and  _270
REMARK  114  A    between atoms: _270  and  _271
REMARK  115  A    between atoms: _273  and  _275
REMARK  116  A    between atoms: _275  and  _276
REMARK  117  A    between atoms: _275  and  _278
REMARK  118  A    between atoms: _278  and  _279
REMARK  119  A    between atoms: _284  and  _286
REMARK  120  A    between atoms: _286  and  _287
REMARK  121  A    between atoms: _286  and  _289
REMARK  122  A    between atoms: _289  and  _290
REMARK  123  A    between atoms: _290  and  _291
REMARK  124  A    between atoms: _293  and  _295
REMARK  125  A    between atoms: _295  and  _296
REMARK  126  A    between atoms: _295  and  _298
REMARK  127  A    between atoms: _298  and  _299
REMARK  128  A    between atoms: _304  and  _306
REMARK  129  A    between atoms: _306  and  _307
REMARK  130  A    between atoms: _306  and  _309
REMARK  131  A    between atoms: _312  and  _314
REMARK  132  A    between atoms: _314  and  _315
REMARK  133  A    between atoms: _314  and  _317
REMARK  134  A    between atoms: _317  and  _318
REMARK  135  A    between atoms: _318  and  _319
REMARK  136  A    between atoms: _324  and  _326
REMARK  137  A    between atoms: _326  and  _327
REMARK  138  A    between atoms: _326  and  _329
REMARK  139  A    between atoms: _329  and  _330
REMARK  140  A    between atoms: _335  and  _337
REMARK  141  A    between atoms: _337  and  _338
REMARK  142  A    between atoms: _337  and  _340
REMARK  143  A    between atoms: _340  and  _341
REMARK  144  A    between atoms: _343  and  _345
REMARK  145  A    between atoms: _345  and  _346
REMARK  146  A    between atoms: _345  and  _348
REMARK  147  A    between atoms: _348  and  _349
REMARK  148  A    between atoms: _352  and  _353
REMARK                            x       y       z     vdW  Elec       q    Type
REMARK                         _______ _______ _______ _____ _____    ______ ____
ROOT
ATOM      1  CB  HIS A   1      21.943  47.198  13.048  0.00  0.00    +0.072 C 
ENDROOT
BRANCH   1   2
ATOM      2  CG  HIS A   1      20.641  47.369  12.316  0.00  0.00    +0.082 A 
ATOM      3  ND1 HIS A   1      19.776  48.426  12.556  0.00  0.00    -0.227 NA
ATOM      4  CE1 HIS A   1      18.712  48.301  11.788  0.00  0.00    +0.199 A 
ATOM      5  NE2 HIS A   1      18.851  47.203  11.063  0.00  0.00    -0.221 NA
ATOM      6  CD2 HIS A   1      20.043  46.600  11.377  0.00  0.00    +0.115 A 
ENDBRANCH   1   2
BRANCH   1   7
ATOM      7  CA  HIS A   1      21.845  47.507  14.543  0.00  0.00    +0.139 C 
BRANCH   7   8
ATOM      8  N   HIS A   1      23.056  47.166  15.258  0.00  0.00    -0.239 NA
ATOM      9  H   HIS A   1      23.750  46.518  14.834  0.00  0.00    +0.142 HD
ENDBRANCH   7   8
BRANCH   7  10
ATOM     10  C   HIS A   1      20.687  46.749  15.210  0.00  0.00    +0.224 C 
ATOM     11  O   HIS A   1      20.607  45.519  15.145  0.00  0.00    -0.287 OA
ENDBRANCH   7  10
ENDBRANCH   1   7
TORSDOF 4
REMARK  Name = ../refined-set-2016/1sbr/1sbr_pocket.pdb
REMARK  148 active torsions:
REMARK  status: ('A' for Active; 'I' for Inactive)
REMARK    1  A    between atoms: _1  and  _3
REMARK    2  A    between atoms: _3  and  _4
REMARK    3  A    between atoms: _3  and  _6
REMARK    4  A    between atoms: _6  and  _7
REMARK    5  A    between atoms: _13  and  _15
REMARK    6  A    between atoms: _15  and  _16
REMARK    7  A    between atoms: _15  and  _18
REMARK    8  A    between atoms: _18  and  _19
REMARK    9  A    between atoms: _19  and  _20
REMARK   10  A    between atoms: _20  and  _21
REMARK   11  A    between atoms: _30  and  _32
REMARK   12  A    between atoms: _32  and  _33
REMARK   13  A    between atoms: _32  and  _35
REMARK   14  A    between atoms: _35  and  _36
REMARK   15  A    between atoms: _42  and  _44
REMARK   16  A    between atoms: _44  and  _45
REMARK   17  A    between atoms: _44  and  _47
REMARK   18  A    between atoms: _47  and  _48
REMARK   19  A    between atoms: _50  and  _52
REMARK   20  A    between atoms: _52  and  _53
REMARK   21  A    between atoms: _52  and  _55
REMARK   22  A    between atoms: _55  and  _56
REMARK   23  A    between atoms: _59  and  _61
REMARK   24  A    between atoms: _61  and  _62
REMARK   25  A    between atoms: _61  and  _64
REMARK   26  A    between atoms: _64  and  _65
REMARK   27  A    between atoms: _70  and  _71
REMARK   28  A    between atoms: _74  and  _75
REMARK   29  A    between atoms: _80  and  _82
REMARK   30  A    between atoms: _82  and  _83
REMARK   31  A    between atoms: _82  and  _85
REMARK   32  A    between atoms: _85  and  _86
REMARK   33  A    between atoms: _92  and  _94
REMARK   34  A    between atoms: _94  and  _95
REMARK   35  A    between atoms: _94  and  _97
REMARK   36  A    between atoms: _97  and  _98
REMARK   37  A    between atoms: _101  and  _103
REMARK   38  A    between atoms: _103  and  _104
REMARK   39  A    between atoms: _103  and  _106
REMARK   40  A    between atoms: _106  and  _107
REMARK   41  A    between atoms: _109  and  _111
REMARK   42  A    between atoms: _111  and  _112
REMARK   43  A    between atoms: _111  and  _114
REMARK   44  A    between atoms: _117  and  _119
REMARK   45  A    between atoms: _119  and  _120
REMARK   46  A    between atoms: _119  and  _122
REMARK   47  A    between atoms: _122  and  _123
REMARK   48  A    between atoms: _126  and  _128
REMARK   49  A    between atoms: _128  and  _129
REMARK   50  A    between atoms: _128  and  _131
REMARK   51  A    between atoms: _131  and  _132
REMARK   52  A    between atoms: _132  and  _133
REMARK   53  A    between atoms: _133  and  _134
REMARK   54  A    between atoms: _134  and  _135
REMARK   55  A    between atoms: _139  and  _141
REMARK   56  A    between atoms: _141  and  _142
REMARK   57  A    between atoms: _141  and  _144
REMARK   58  A    between atoms: _144  and  _145
REMARK   59  A    between atoms: _147  and  _149
REMARK   60  A    between atoms: _149  and  _150
REMARK   61  A    between atoms: _153  and  _155
REMARK   62  A    between atoms: _155  and  _156
REMARK   63  A    between atoms: _155  and  _158
REMARK   64  A    between atoms: _158  and  _159
REMARK   65  A    between atoms: _162  and  _164
REMARK   66  A    between atoms: _164  and  _165
REMARK   67  A    between atoms: _164  and  _167
REMARK   68  A    between atoms: _167  and  _168
REMARK   69  A    between atoms: _168  and  _169
REMARK   70  A    between atoms: _169  and  _170
REMARK   71  A    between atoms: _170  and  _171
REMARK   72  A    between atoms: _175  and  _177
REMARK   73  A    between atoms: _177  and  _178
REMARK   74  A    between atoms: _177  and  _180
REMARK   75  A    between atoms: _180  and  _181
REMARK   76  A    between atoms: _184  and  _186
REMARK   77  A    between atoms: _186  and  _187
REMARK   78  A    between atoms: _186  and  _189
REMARK   79  A    between atoms: _189  and  _190
REMARK   80  A    between atoms: _193  and  _195
REMARK   81  A    between atoms: _195  and  _196
REMARK   82  A    between atoms: _195  and  _198
REMARK   83  A    between atoms: _198  and  _199
REMARK   84  A    between atoms: _204  and  _206
REMARK   85  A    between atoms: _206  and  _207
REMARK   86  A    between atoms: _206  and  _209
REMARK   87  A    between atoms: _209  and  _210
REMARK   88  A    between atoms: _213  and  _215
REMARK   89  A    between atoms: _215  and  _216
REMARK   90  A    between atoms: _215  and  _218
REMARK   91  A    between atoms: _218  and  _219
REMARK   92  A    between atoms: _221  and  _223
REMARK   93  A    between atoms: _223  and  _224
REMARK   94  A    between atoms: _223  and  _226
REMARK   95  A    between atoms: _226  and  _227
REMARK   96  A    between atoms: _230  and  _232
REMARK   97  A    between atoms: _232  and  _233
REMARK   98  A    between atoms: _232  and  _235
REMARK   99  A    between atoms: _238  and  _240
REMARK  100  A    between atoms: _240  and  _241
REMARK  101  A    between atoms: _240  and  _243
REMARK  102  A    between atoms: _243  and  _244
REMARK  103  A    between atoms: _247  and  _249
REMARK  104  A    between atoms: _249  and  _250
REMARK  105  A    between atoms: _249  and  _252
REMARK  106  A    between atoms: _252  and  _253
REMARK  107  A    between atoms: _256  and  _258
REMARK  108  A    between atoms: _258  and  _259
REMARK  109  A    between atoms: _258  and  _261
REMARK  110  A    between atoms: _264  and  _266
REMARK  111  A    between atoms: _266  and  _267
REMARK  112  A    between atoms: _266  and  _269
REMARK  113  A    between atoms: _269  and  _270
REMARK  114  A    between atoms: _270  and  _271
REMARK  115  A    between atoms: _273  and  _275
REMARK  116  A    between atoms: _275  and  _276
REMARK  117  A    between atoms: _275  and  _278
REMARK  118  A    between atoms: _278  and  _279
REMARK  119  A    between atoms: _284  and  _286
REMARK  120  A    between atoms: _286  and  _287
REMARK  121  A    between atoms: _286  and  _289
REMARK  122  A    between atoms: _289  and  _290
REMARK  123  A    between atoms: _290  and  _291
REMARK  124  A    between atoms: _293  and  _295
REMARK  125  A    between atoms: _295  and  _296
REMARK  126  A    between atoms: _295  and  _298
REMARK  127  A    between atoms: _298  and  _299
REMARK  128  A    between atoms: _304  and  _306
REMARK  129  A    between atoms: _306  and  _307
REMARK  130  A    between atoms: _306  and  _309
REMARK  131  A    between atoms: _312  and  _314
REMARK  132  A    between atoms: _314  and  _315
REMARK  133  A    between atoms: _314  and  _317
REMARK  134  A    between atoms: _317  and  _318
REMARK  135  A    between atoms: _318  and  _319
REMARK  136  A    between atoms: _324  and  _326
REMARK  137  A    between atoms: _326  and  _327
REMARK  138  A    between atoms: _326  and  _329
REMARK  139  A    between atoms: _329  and  _330
REMARK  140  A    between atoms: _335  and  _337
REMARK  141  A    between atoms: _337  and  _338
REMARK  142  A    between atoms: _337  and  _340
REMARK  143  A    between atoms: _340  and  _341
REMARK  144  A    between atoms: _343  and  _345
REMARK  145  A    between atoms: _345  and  _346
REMARK  146  A    between atoms: _345  and  _348
REMARK  147  A    between atoms: _348  and  _349
REMARK  148  A    between atoms: _352  and  _353
REMARK                            x       y       z     vdW  Elec       q    Type
REMARK                         _______ _______ _______ _____ _____    ______ ____
ROOT
ATOM      1  CA  VAL A   1      15.045  47.159  15.718  0.00  0.00    +0.133 C 
ENDROOT
BRANCH   1   2
ATOM      2  CB  VAL A   1      14.519  46.348  14.480  0.00  0.00    +0.023 C 
ATOM      3  CG2 VAL A   1      13.017  46.386  14.386  0.00  0.00    +0.002 C 
ATOM      4  CG1 VAL A   1      15.106  46.852  13.205  0.00  0.00    +0.002 C 
ENDBRANCH   1   2
BRANCH   1   5
ATOM      5  N   VAL A   1      16.385  46.740  16.043  0.00  0.00    -0.239 NA
ATOM      6  H   VAL A   1      16.531  45.753  16.337  0.00  0.00    +0.142 HD
ENDBRANCH   1   5
BRANCH   1   7
ATOM      7  C   VAL A   1      14.176  46.861  16.965  0.00  0.00    +0.224 C 
ATOM      8  O   VAL A   1      14.318  45.816  17.598  0.00  0.00    -0.287 OA
ENDBRANCH   1   7
TORSDOF 3
REMARK  Name = ../refined-set-2016/1sbr/1sbr_pocket.pdb
REMARK  148 active torsions:
REMARK  status: ('A' for Active; 'I' for Inactive)
REMARK    1  A    between atoms: _1  and  _3
REMARK    2  A    between atoms: _3  and  _4
REMARK    3  A    between atoms: _3  and  _6
REMARK    4  A    between atoms: _6  and  _7
REMARK    5  A    between atoms: _13  and  _15
REMARK    6  A    between atoms: _15  and  _16
REMARK    7  A    between atoms: _15  and  _18
REMARK    8  A    between atoms: _18  and  _19
REMARK    9  A    between atoms: _19  and  _20
REMARK   10  A    between atoms: _20  and  _21
REMARK   11  A    between atoms: _30  and  _32
REMARK   12  A    between atoms: _32  and  _33
REMARK   13  A    between atoms: _32  and  _35
REMARK   14  A    between atoms: _35  and  _36
REMARK   15  A    between atoms: _42  and  _44
REMARK   16  A    between atoms: _44  and  _45
REMARK   17  A    between atoms: _44  and  _47
REMARK   18  A    between atoms: _47  and  _48
REMARK   19  A    between atoms: _50  and  _52
REMARK   20  A    between atoms: _52  and  _53
REMARK   21  A    between atoms: _52  and  _55
REMARK   22  A    between atoms: _55  and  _56
REMARK   23  A    between atoms: _59  and  _61
REMARK   24  A    between atoms: _61  and  _62
REMARK   25  A    between atoms: _61  and  _64
REMARK   26  A    between atoms: _64  and  _65
REMARK   27  A    between atoms: _70  and  _71
REMARK   28  A    between atoms: _74  and  _75
REMARK   29  A    between atoms: _80  and  _82
REMARK   30  A    between atoms: _82  and  _83
REMARK   31  A    between atoms: _82  and  _85
REMARK   32  A    between atoms: _85  and  _86
REMARK   33  A    between atoms: _92  and  _94
REMARK   34  A    between atoms: _94  and  _95
REMARK   35  A    between atoms: _94  and  _97
REMARK   36  A    between atoms: _97  and  _98
REMARK   37  A    between atoms: _101  and  _103
REMARK   38  A    between atoms: _103  and  _104
REMARK   39  A    between atoms: _103  and  _106
REMARK   40  A    between atoms: _106  and  _107
REMARK   41  A    between atoms: _109  and  _111
REMARK   42  A    between atoms: _111  and  _112
REMARK   43  A    between atoms: _111  and  _114
REMARK   44  A    between atoms: _117  and  _119
REMARK   45  A    between atoms: _119  and  _120
REMARK   46  A    between atoms: _119  and  _122
REMARK   47  A    between atoms: _122  and  _123
REMARK   48  A    between atoms: _126  and  _128
REMARK   49  A    between atoms: _128  and  _129
REMARK   50  A    between atoms: _128  and  _131
REMARK   51  A    between atoms: _131  and  _132
REMARK   52  A    between atoms: _132  and  _133
REMARK   53  A    between atoms: _133  and  _134
REMARK   54  A    between atoms: _134  and  _135
REMARK   55  A    between atoms: _139  and  _141
REMARK   56  A    between atoms: _141  and  _142
REMARK   57  A    between atoms: _141  and  _144
REMARK   58  A    between atoms: _144  and  _145
REMARK   59  A    between atoms: _147  and  _149
REMARK   60  A    between atoms: _149  and  _150
REMARK   61  A    between atoms: _153  and  _155
REMARK   62  A    between atoms: _155  and  _156
REMARK   63  A    between atoms: _155  and  _158
REMARK   64  A    between atoms: _158  and  _159
REMARK   65  A    between atoms: _162  and  _164
REMARK   66  A    between atoms: _164  and  _165
REMARK   67  A    between atoms: _164  and  _167
REMARK   68  A    between atoms: _167  and  _168
REMARK   69  A    between atoms: _168  and  _169
REMARK   70  A    between atoms: _169  and  _170
REMARK   71  A    between atoms: _170  and  _171
REMARK   72  A    between atoms: _175  and  _177
REMARK   73  A    between atoms: _177  and  _178
REMARK   74  A    between atoms: _177  and  _180
REMARK   75  A    between atoms: _180  and  _181
REMARK   76  A    between atoms: _184  and  _186
REMARK   77  A    between atoms: _186  and  _187
REMARK   78  A    between atoms: _186  and  _189
REMARK   79  A    between atoms: _189  and  _190
REMARK   80  A    between atoms: _193  and  _195
REMARK   81  A    between atoms: _195  and  _196
REMARK   82  A    between atoms: _195  and  _198
REMARK   83  A    between atoms: _198  and  _199
REMARK   84  A    between atoms: _204  and  _206
REMARK   85  A    between atoms: _206  and  _207
REMARK   86  A    between atoms: _206  and  _209
REMARK   87  A    between atoms: _209  and  _210
REMARK   88  A    between atoms: _213  and  _215
REMARK   89  A    between atoms: _215  and  _216
REMARK   90  A    between atoms: _215  and  _218
REMARK   91  A    between atoms: _218  and  _219
REMARK   92  A    between atoms: _221  and  _223
REMARK   93  A    between atoms: _223  and  _224
REMARK   94  A    between atoms: _223  and  _226
REMARK   95  A    between atoms: _226  and  _227
REMARK   96  A    between atoms: _230  and  _232
REMARK   97  A    between atoms: _232  and  _233
REMARK   98  A    between atoms: _232  and  _235
REMARK   99  A    between atoms: _238  and  _240
REMARK  100  A    between atoms: _240  and  _241
REMARK  101  A    between atoms: _240  and  _243
REMARK  102  A    between atoms: _243  and  _244
REMARK  103  A    between atoms: _247  and  _249
REMARK  104  A    between atoms: _249  and  _250
REMARK  105  A    between atoms: _249  and  _252
REMARK  106  A    between atoms: _252  and  _253
REMARK  107  A    between atoms: _256  and  _258
REMARK  108  A    between atoms: _258  and  _259
REMARK  109  A    between atoms: _258  and  _261
REMARK  110  A    between atoms: _264  and  _266
REMARK  111  A    between atoms: _266  and  _267
REMARK  112  A    between atoms: _266  and  _269
REMARK  113  A    between atoms: _269  and  _270
REMARK  114  A    between atoms: _270  and  _271
REMARK  115  A    between atoms: _273  and  _275
REMARK  116  A    between atoms: _275  and  _276
REMARK  117  A    between atoms: _275  and  _278
REMARK  118  A    between atoms: _278  and  _279
REMARK  119  A    between atoms: _284  and  _286
REMARK  120  A    between atoms: _286  and  _287
REMARK  121  A    between atoms: _286  and  _289
REMARK  122  A    between atoms: _289  and  _290
REMARK  123  A    between atoms: _290  and  _291
REMARK  124  A    between atoms: _293  and  _295
REMARK  125  A    between atoms: _295  and  _296
REMARK  126  A    between atoms: _295  and  _298
REMARK  127  A    between atoms: _298  and  _299
REMARK  128  A    between atoms: _304  and  _306
REMARK  129  A    between atoms: _306  and  _307
REMARK  130  A    between atoms: _306  and  _309
REMARK  131  A    between atoms: _312  and  _314
REMARK  132  A    between atoms: _314  and  _315
REMARK  133  A    between atoms: _314  and  _317
REMARK  134  A    between atoms: _317  and  _318
REMARK  135  A    between atoms: _318  and  _319
REMARK  136  A    between atoms: _324  and  _326
REMARK  137  A    between atoms: _326  and  _327
REMARK  138  A    between atoms: _326  and  _329
REMARK  139  A    between atoms: _329  and  _330
REMARK  140  A    between atoms: _335  and  _337
REMARK  141  A    between atoms: _337  and  _338
REMARK  142  A    between atoms: _337  and  _340
REMARK  143  A    between atoms: _340  and  _341
REMARK  144  A    between atoms: _343  and  _345
REMARK  145  A    between atoms: _345  and  _346
REMARK  146  A    between atoms: _345  and  _348
REMARK  147  A    between atoms: _348  and  _349
REMARK  148  A    between atoms: _352  and  _353
REMARK                            x       y       z     vdW  Elec       q    Type
REMARK                         _______ _______ _______ _____ _____    ______ ____
ROOT
ATOM      1  CB  GLN A   1       7.118  51.928   9.245  0.00  0.00    +0.035 C 
ENDROOT
BRANCH   1   2
ATOM      2  CA  GLN A   1       6.914  52.967  10.363  0.00  0.00    +0.134 C 
BRANCH   2   3
ATOM      3  N   GLN A   1       8.153  53.169  11.105  0.00  0.00    -0.239 NA
ATOM      4  H   GLN A   1       8.580  52.354  11.590  0.00  0.00    +0.142 HD
ENDBRANCH   2   3
BRANCH   2   5
ATOM      5  C   GLN A   1       5.853  52.478  11.373  0.00  0.00    +0.224 C 
ATOM      6  O   GLN A   1       6.092  51.520  12.139  0.00  0.00    -0.287 OA
ENDBRANCH   2   5
ENDBRANCH   1   2
BRANCH   1   7
ATOM      7  CG  GLN A   1       7.892  52.429   8.023  0.00  0.00    +0.087 C 
BRANCH   7   8
ATOM      8  CD  GLN A   1       8.217  51.339   6.979  0.00  0.00    +0.219 C 
ATOM      9  OE1 GLN A   1       8.348  50.136   7.297  0.00  0.00    -0.275 OA
ATOM     10  NE2 GLN A   1       8.379  51.769   5.726  0.00  0.00    -0.329 N 
ATOM     11 HE21 GLN A   1       8.261  52.778   5.503  0.00  0.00    +0.145 HD
ATOM     12 HE22 GLN A   1       8.623  51.095   4.972  0.00  0.00    +0.145 HD
ENDBRANCH   7   8
ENDBRANCH   1   7
TORSDOF 5
REMARK  Name = ../refined-set-2016/1sbr/1sbr_pocket.pdb
REMARK  148 active torsions:
REMARK  status: ('A' for Active; 'I' for Inactive)
REMARK    1  A    between atoms: _1  and  _3
REMARK    2  A    between atoms: _3  and  _4
REMARK    3  A    between atoms: _3  and  _6
REMARK    4  A    between atoms: _6  and  _7
REMARK    5  A    between atoms: _13  and  _15
REMARK    6  A    between atoms: _15  and  _16
REMARK    7  A    between atoms: _15  and  _18
REMARK    8  A    between atoms: _18  and  _19
REMARK    9  A    between atoms: _19  and  _20
REMARK   10  A    between atoms: _20  and  _21
REMARK   11  A    between atoms: _30  and  _32
REMARK   12  A    between atoms: _32  and  _33
REMARK   13  A    between atoms: _32  and  _35
REMARK   14  A    between atoms: _35  and  _36
REMARK   15  A    between atoms: _42  and  _44
REMARK   16  A    between atoms: _44  and  _45
REMARK   17  A    between atoms: _44  and  _47
REMARK   18  A    between atoms: _47  and  _48
REMARK   19  A    between atoms: _50  and  _52
REMARK   20  A    between atoms: _52  and  _53
REMARK   21  A    between atoms: _52  and  _55
REMARK   22  A    between atoms: _55  and  _56
REMARK   23  A    between atoms: _59  and  _61
REMARK   24  A    between atoms: _61  and  _62
REMARK   25  A    between atoms: _61  and  _64
REMARK   26  A    between atoms: _64  and  _65
REMARK   27  A    between atoms: _70  and  _71
REMARK   28  A    between atoms: _74  and  _75
REMARK   29  A    between atoms: _80  and  _82
REMARK   30  A    between atoms: _82  and  _83
REMARK   31  A    between atoms: _82  and  _85
REMARK   32  A    between atoms: _85  and  _86
REMARK   33  A    between atoms: _92  and  _94
REMARK   34  A    between atoms: _94  and  _95
REMARK   35  A    between atoms: _94  and  _97
REMARK   36  A    between atoms: _97  and  _98
REMARK   37  A    between atoms: _101  and  _103
REMARK   38  A    between atoms: _103  and  _104
REMARK   39  A    between atoms: _103  and  _106
REMARK   40  A    between atoms: _106  and  _107
REMARK   41  A    between atoms: _109  and  _111
REMARK   42  A    between atoms: _111  and  _112
REMARK   43  A    between atoms: _111  and  _114
REMARK   44  A    between atoms: _117  and  _119
REMARK   45  A    between atoms: _119  and  _120
REMARK   46  A    between atoms: _119  and  _122
REMARK   47  A    between atoms: _122  and  _123
REMARK   48  A    between atoms: _126  and  _128
REMARK   49  A    between atoms: _128  and  _129
REMARK   50  A    between atoms: _128  and  _131
REMARK   51  A    between atoms: _131  and  _132
REMARK   52  A    between atoms: _132  and  _133
REMARK   53  A    between atoms: _133  and  _134
REMARK   54  A    between atoms: _134  and  _135
REMARK   55  A    between atoms: _139  and  _141
REMARK   56  A    between atoms: _141  and  _142
REMARK   57  A    between atoms: _141  and  _144
REMARK   58  A    between atoms: _144  and  _145
REMARK   59  A    between atoms: _147  and  _149
REMARK   60  A    between atoms: _149  and  _150
REMARK   61  A    between atoms: _153  and  _155
REMARK   62  A    between atoms: _155  and  _156
REMARK   63  A    between atoms: _155  and  _158
REMARK   64  A    between atoms: _158  and  _159
REMARK   65  A    between atoms: _162  and  _164
REMARK   66  A    between atoms: _164  and  _165
REMARK   67  A    between atoms: _164  and  _167
REMARK   68  A    between atoms: _167  and  _168
REMARK   69  A    between atoms: _168  and  _169
REMARK   70  A    between atoms: _169  and  _170
REMARK   71  A    between atoms: _170  and  _171
REMARK   72  A    between atoms: _175  and  _177
REMARK   73  A    between atoms: _177  and  _178
REMARK   74  A    between atoms: _177  and  _180
REMARK   75  A    between atoms: _180  and  _181
REMARK   76  A    between atoms: _184  and  _186
REMARK   77  A    between atoms: _186  and  _187
REMARK   78  A    between atoms: _186  and  _189
REMARK   79  A    between atoms: _189  and  _190
REMARK   80  A    between atoms: _193  and  _195
REMARK   81  A    between atoms: _195  and  _196
REMARK   82  A    between atoms: _195  and  _198
REMARK   83  A    between atoms: _198  and  _199
REMARK   84  A    between atoms: _204  and  _206
REMARK   85  A    between atoms: _206  and  _207
REMARK   86  A    between atoms: _206  and  _209
REMARK   87  A    between atoms: _209  and  _210
REMARK   88  A    between atoms: _213  and  _215
REMARK   89  A    between atoms: _215  and  _216
REMARK   90  A    between atoms: _215  and  _218
REMARK   91  A    between atoms: _218  and  _219
REMARK   92  A    between atoms: _221  and  _223
REMARK   93  A    between atoms: _223  and  _224
REMARK   94  A    between atoms: _223  and  _226
REMARK   95  A    between atoms: _226  and  _227
REMARK   96  A    between atoms: _230  and  _232
REMARK   97  A    between atoms: _232  and  _233
REMARK   98  A    between atoms: _232  and  _235
REMARK   99  A    between atoms: _238  and  _240
REMARK  100  A    between atoms: _240  and  _241
REMARK  101  A    between atoms: _240  and  _243
REMARK  102  A    between atoms: _243  and  _244
REMARK  103  A    between atoms: _247  and  _249
REMARK  104  A    between atoms: _249  and  _250
REMARK  105  A    between atoms: _249  and  _252
REMARK  106  A    between atoms: _252  and  _253
REMARK  107  A    between atoms: _256  and  _258
REMARK  108  A    between atoms: _258  and  _259
REMARK  109  A    between atoms: _258  and  _261
REMARK  110  A    between atoms: _264  and  _266
REMARK  111  A    between atoms: _266  and  _267
REMARK  112  A    between atoms: _266  and  _269
REMARK  113  A    between atoms: _269  and  _270
REMARK  114  A    between atoms: _270  and  _271
REMARK  115  A    between atoms: _273  and  _275
REMARK  116  A    between atoms: _275  and  _276
REMARK  117  A    between atoms: _275  and  _278
REMARK  118  A    between atoms: _278  and  _279
REMARK  119  A    between atoms: _284  and  _286
REMARK  120  A    between atoms: _286  and  _287
REMARK  121  A    between atoms: _286  and  _289
REMARK  122  A    between atoms: _289  and  _290
REMARK  123  A    between atoms: _290  and  _291
REMARK  124  A    between atoms: _293  and  _295
REMARK  125  A    between atoms: _295  and  _296
REMARK  126  A    between atoms: _295  and  _298
REMARK  127  A    between atoms: _298  and  _299
REMARK  128  A    between atoms: _304  and  _306
REMARK  129  A    between atoms: _306  and  _307
REMARK  130  A    between atoms: _306  and  _309
REMARK  131  A    between atoms: _312  and  _314
REMARK  132  A    between atoms: _314  and  _315
REMARK  133  A    between atoms: _314  and  _317
REMARK  134  A    between atoms: _317  and  _318
REMARK  135  A    between atoms: _318  and  _319
REMARK  136  A    between atoms: _324  and  _326
REMARK  137  A    between atoms: _326  and  _327
REMARK  138  A    between atoms: _326  and  _329
REMARK  139  A    between atoms: _329  and  _330
REMARK  140  A    between atoms: _335  and  _337
REMARK  141  A    between atoms: _337  and  _338
REMARK  142  A    between atoms: _337  and  _340
REMARK  143  A    between atoms: _340  and  _341
REMARK  144  A    between atoms: _343  and  _345
REMARK  145  A    between atoms: _345  and  _346
REMARK  146  A    between atoms: _345  and  _348
REMARK  147  A    between atoms: _348  and  _349
REMARK  148  A    between atoms: _352  and  _353
REMARK                            x       y       z     vdW  Elec       q    Type
REMARK                         _______ _______ _______ _____ _____    ______ ____
ROOT
ATOM      1  CB  ASN A   1       8.265  48.868  12.434  0.00  0.00    +0.110 C 
ENDROOT
BRANCH   1   2
ATOM      2  CG  ASN A   1       9.281  47.879  11.898  0.00  0.00    +0.221 C 
ATOM      3  OD1 ASN A   1      10.353  47.682  12.482  0.00  0.00    -0.275 OA
ATOM      4  ND2 ASN A   1       8.957  47.256  10.763  0.00  0.00    -0.329 N 
ATOM      5 HD21 ASN A   1       9.617  46.575  10.337  0.00  0.00    +0.145 HD
ATOM      6 HD22 ASN A   1       8.044  47.452  10.305  0.00  0.00    +0.145 HD
ENDBRANCH   1   2
BRANCH   1   7
ATOM      7  CA  ASN A   1       8.556  49.317  13.851  0.00  0.00    +0.142 C 
BRANCH   7   8
ATOM      8  N   ASN A   1       7.411  50.028  14.371  0.00  0.00    -0.239 NA
ATOM      9  H   ASN A   1       7.231  50.987  14.012  0.00  0.00    +0.142 HD
ENDBRANCH   7   8
BRANCH   7  10
ATOM     10  C   ASN A   1       9.682  50.333  13.825  0.00  0.00    +0.225 C 
ATOM     11  O   ASN A   1       9.751  51.146  12.904  0.00  0.00    -0.287 OA
ENDBRANCH   7  10
ENDBRANCH   1   7
TORSDOF 4
REMARK  Name = ../refined-set-2016/1sbr/1sbr_pocket.pdb
REMARK  148 active torsions:
REMARK  status: ('A' for Active; 'I' for Inactive)
REMARK    1  A    between atoms: _1  and  _3
REMARK    2  A    between atoms: _3  and  _4
REMARK    3  A    between atoms: _3  and  _6
REMARK    4  A    between atoms: _6  and  _7
REMARK    5  A    between atoms: _13  and  _15
REMARK    6  A    between atoms: _15  and  _16
REMARK    7  A    between atoms: _15  and  _18
REMARK    8  A    between atoms: _18  and  _19
REMARK    9  A    between atoms: _19  and  _20
REMARK   10  A    between atoms: _20  and  _21
REMARK   11  A    between atoms: _30  and  _32
REMARK   12  A    between atoms: _32  and  _33
REMARK   13  A    between atoms: _32  and  _35
REMARK   14  A    between atoms: _35  and  _36
REMARK   15  A    between atoms: _42  and  _44
REMARK   16  A    between atoms: _44  and  _45
REMARK   17  A    between atoms: _44  and  _47
REMARK   18  A    between atoms: _47  and  _48
REMARK   19  A    between atoms: _50  and  _52
REMARK   20  A    between atoms: _52  and  _53
REMARK   21  A    between atoms: _52  and  _55
REMARK   22  A    between atoms: _55  and  _56
REMARK   23  A    between atoms: _59  and  _61
REMARK   24  A    between atoms: _61  and  _62
REMARK   25  A    between atoms: _61  and  _64
REMARK   26  A    between atoms: _64  and  _65
REMARK   27  A    between atoms: _70  and  _71
REMARK   28  A    between atoms: _74  and  _75
REMARK   29  A    between atoms: _80  and  _82
REMARK   30  A    between atoms: _82  and  _83
REMARK   31  A    between atoms: _82  and  _85
REMARK   32  A    between atoms: _85  and  _86
REMARK   33  A    between atoms: _92  and  _94
REMARK   34  A    between atoms: _94  and  _95
REMARK   35  A    between atoms: _94  and  _97
REMARK   36  A    between atoms: _97  and  _98
REMARK   37  A    between atoms: _101  and  _103
REMARK   38  A    between atoms: _103  and  _104
REMARK   39  A    between atoms: _103  and  _106
REMARK   40  A    between atoms: _106  and  _107
REMARK   41  A    between atoms: _109  and  _111
REMARK   42  A    between atoms: _111  and  _112
REMARK   43  A    between atoms: _111  and  _114
REMARK   44  A    between atoms: _117  and  _119
REMARK   45  A    between atoms: _119  and  _120
REMARK   46  A    between atoms: _119  and  _122
REMARK   47  A    between atoms: _122  and  _123
REMARK   48  A    between atoms: _126  and  _128
REMARK   49  A    between atoms: _128  and  _129
REMARK   50  A    between atoms: _128  and  _131
REMARK   51  A    between atoms: _131  and  _132
REMARK   52  A    between atoms: _132  and  _133
REMARK   53  A    between atoms: _133  and  _134
REMARK   54  A    between atoms: _134  and  _135
REMARK   55  A    between atoms: _139  and  _141
REMARK   56  A    between atoms: _141  and  _142
REMARK   57  A    between atoms: _141  and  _144
REMARK   58  A    between atoms: _144  and  _145
REMARK   59  A    between atoms: _147  and  _149
REMARK   60  A    between atoms: _149  and  _150
REMARK   61  A    between atoms: _153  and  _155
REMARK   62  A    between atoms: _155  and  _156
REMARK   63  A    between atoms: _155  and  _158
REMARK   64  A    between atoms: _158  and  _159
REMARK   65  A    between atoms: _162  and  _164
REMARK   66  A    between atoms: _164  and  _165
REMARK   67  A    between atoms: _164  and  _167
REMARK   68  A    between atoms: _167  and  _168
REMARK   69  A    between atoms: _168  and  _169
REMARK   70  A    between atoms: _169  and  _170
REMARK   71  A    between atoms: _170  and  _171
REMARK   72  A    between atoms: _175  and  _177
REMARK   73  A    between atoms: _177  and  _178
REMARK   74  A    between atoms: _177  and  _180
REMARK   75  A    between atoms: _180  and  _181
REMARK   76  A    between atoms: _184  and  _186
REMARK   77  A    between atoms: _186  and  _187
REMARK   78  A    between atoms: _186  and  _189
REMARK   79  A    between atoms: _189  and  _190
REMARK   80  A    between atoms: _193  and  _195
REMARK   81  A    between atoms: _195  and  _196
REMARK   82  A    between atoms: _195  and  _198
REMARK   83  A    between atoms: _198  and  _199
REMARK   84  A    between atoms: _204  and  _206
REMARK   85  A    between atoms: _206  and  _207
REMARK   86  A    between atoms: _206  and  _209
REMARK   87  A    between atoms: _209  and  _210
REMARK   88  A    between atoms: _213  and  _215
REMARK   89  A    between atoms: _215  and  _216
REMARK   90  A    between atoms: _215  and  _218
REMARK   91  A    between atoms: _218  and  _219
REMARK   92  A    between atoms: _221  and  _223
REMARK   93  A    between atoms: _223  and  _224
REMARK   94  A    between atoms: _223  and  _226
REMARK   95  A    between atoms: _226  and  _227
REMARK   96  A    between atoms: _230  and  _232
REMARK   97  A    between atoms: _232  and  _233
REMARK   98  A    between atoms: _232  and  _235
REMARK   99  A    between atoms: _238  and  _240
REMARK  100  A    between atoms: _240  and  _241
REMARK  101  A    between atoms: _240  and  _243
REMARK  102  A    between atoms: _243  and  _244
REMARK  103  A    between atoms: _247  and  _249
REMARK  104  A    between atoms: _249  and  _250
REMARK  105  A    between atoms: _249  and  _252
REMARK  106  A    between atoms: _252  and  _253
REMARK  107  A    between atoms: _256  and  _258
REMARK  108  A    between atoms: _258  and  _259
REMARK  109  A    between atoms: _258  and  _261
REMARK  110  A    between atoms: _264  and  _266
REMARK  111  A    between atoms: _266  and  _267
REMARK  112  A    between atoms: _266  and  _269
REMARK  113  A    between atoms: _269  and  _270
REMARK  114  A    between atoms: _270  and  _271
REMARK  115  A    between atoms: _273  and  _275
REMARK  116  A    between atoms: _275  and  _276
REMARK  117  A    between atoms: _275  and  _278
REMARK  118  A    between atoms: _278  and  _279
REMARK  119  A    between atoms: _284  and  _286
REMARK  120  A    between atoms: _286  and  _287
REMARK  121  A    between atoms: _286  and  _289
REMARK  122  A    between atoms: _289  and  _290
REMARK  123  A    between atoms: _290  and  _291
REMARK  124  A    between atoms: _293  and  _295
REMARK  125  A    between atoms: _295  and  _296
REMARK  126  A    between atoms: _295  and  _298
REMARK  127  A    between atoms: _298  and  _299
REMARK  128  A    between atoms: _304  and  _306
REMARK  129  A    between atoms: _306  and  _307
REMARK  130  A    between atoms: _306  and  _309
REMARK  131  A    between atoms: _312  and  _314
REMARK  132  A    between atoms: _314  and  _315
REMARK  133  A    between atoms: _314  and  _317
REMARK  134  A    between atoms: _317  and  _318
REMARK  135  A    between atoms: _318  and  _319
REMARK  136  A    between atoms: _324  and  _326
REMARK  137  A    between atoms: _326  and  _327
REMARK  138  A    between atoms: _326  and  _329
REMARK  139  A    between atoms: _329  and  _330
REMARK  140  A    between atoms: _335  and  _337
REMARK  141  A    between atoms: _337  and  _338
REMARK  142  A    between atoms: _337  and  _340
REMARK  143  A    between atoms: _340  and  _341
REMARK  144  A    between atoms: _343  and  _345
REMARK  145  A    between atoms: _345  and  _346
REMARK  146  A    between atoms: _345  and  _348
REMARK  147  A    between atoms: _348  and  _349
REMARK  148  A    between atoms: _352  and  _353
REMARK                            x       y       z     vdW  Elec       q    Type
REMARK                         _______ _______ _______ _____ _____    ______ ____
ROOT
ATOM      1  CA  SER A   1      15.098  51.055  13.580  0.00  0.00    +0.163 C 
ENDROOT
BRANCH   1   2
ATOM      2  N   SER A   1      13.783  51.493  14.017  0.00  0.00    -0.237 NA
ATOM      3  H   SER A   1      13.428  52.414  13.690  0.00  0.00    +0.142 HD
ENDBRANCH   1   2
BRANCH   1   4
ATOM      4  CB  SER A   1      16.176  51.942  14.131  0.00  0.00    +0.227 C 
ATOM      5  OG  SER A   1      16.104  53.141  13.984  0.00  0.00    -0.287 OA
ENDBRANCH   1   4
BRANCH   1   6
ATOM      6  C   SER A   1      15.141  51.109  12.058  0.00  0.00    +0.162 C 
BRANCH   6   7
ATOM      7  O   SER A   1      16.069  50.173  11.576  0.00  0.00    -0.380 OA
ATOM      8  H   SER A   1      16.093  50.213  10.587  0.00  0.00    +0.211 HD
ENDBRANCH   6   7
ENDBRANCH   1   6
TORSDOF 4
REMARK  Name = ../refined-set-2016/1sbr/1sbr_pocket.pdb
REMARK  148 active torsions:
REMARK  status: ('A' for Active; 'I' for Inactive)
REMARK    1  A    between atoms: _1  and  _3
REMARK    2  A    between atoms: _3  and  _4
REMARK    3  A    between atoms: _3  and  _6
REMARK    4  A    between atoms: _6  and  _7
REMARK    5  A    between atoms: _13  and  _15
REMARK    6  A    between atoms: _15  and  _16
REMARK    7  A    between atoms: _15  and  _18
REMARK    8  A    between atoms: _18  and  _19
REMARK    9  A    between atoms: _19  and  _20
REMARK   10  A    between atoms: _20  and  _21
REMARK   11  A    between atoms: _30  and  _32
REMARK   12  A    between atoms: _32  and  _33
REMARK   13  A    between atoms: _32  and  _35
REMARK   14  A    between atoms: _35  and  _36
REMARK   15  A    between atoms: _42  and  _44
REMARK   16  A    between atoms: _44  and  _45
REMARK   17  A    between atoms: _44  and  _47
REMARK   18  A    between atoms: _47  and  _48
REMARK   19  A    between atoms: _50  and  _52
REMARK   20  A    between atoms: _52  and  _53
REMARK   21  A    between atoms: _52  and  _55
REMARK   22  A    between atoms: _55  and  _56
REMARK   23  A    between atoms: _59  and  _61
REMARK   24  A    between atoms: _61  and  _62
REMARK   25  A    between atoms: _61  and  _64
REMARK   26  A    between atoms: _64  and  _65
REMARK   27  A    between atoms: _70  and  _71
REMARK   28  A    between atoms: _74  and  _75
REMARK   29  A    between atoms: _80  and  _82
REMARK   30  A    between atoms: _82  and  _83
REMARK   31  A    between atoms: _82  and  _85
REMARK   32  A    between atoms: _85  and  _86
REMARK   33  A    between atoms: _92  and  _94
REMARK   34  A    between atoms: _94  and  _95
REMARK   35  A    between atoms: _94  and  _97
REMARK   36  A    between atoms: _97  and  _98
REMARK   37  A    between atoms: _101  and  _103
REMARK   38  A    between atoms: _103  and  _104
REMARK   39  A    between atoms: _103  and  _106
REMARK   40  A    between atoms: _106  and  _107
REMARK   41  A    between atoms: _109  and  _111
REMARK   42  A    between atoms: _111  and  _112
REMARK   43  A    between atoms: _111  and  _114
REMARK   44  A    between atoms: _117  and  _119
REMARK   45  A    between atoms: _119  and  _120
REMARK   46  A    between atoms: _119  and  _122
REMARK   47  A    between atoms: _122  and  _123
REMARK   48  A    between atoms: _126  and  _128
REMARK   49  A    between atoms: _128  and  _129
REMARK   50  A    between atoms: _128  and  _131
REMARK   51  A    between atoms: _131  and  _132
REMARK   52  A    between atoms: _132  and  _133
REMARK   53  A    between atoms: _133  and  _134
REMARK   54  A    between atoms: _134  and  _135
REMARK   55  A    between atoms: _139  and  _141
REMARK   56  A    between atoms: _141  and  _142
REMARK   57  A    between atoms: _141  and  _144
REMARK   58  A    between atoms: _144  and  _145
REMARK   59  A    between atoms: _147  and  _149
REMARK   60  A    between atoms: _149  and  _150
REMARK   61  A    between atoms: _153  and  _155
REMARK   62  A    between atoms: _155  and  _156
REMARK   63  A    between atoms: _155  and  _158
REMARK   64  A    between atoms: _158  and  _159
REMARK   65  A    between atoms: _162  and  _164
REMARK   66  A    between atoms: _164  and  _165
REMARK   67  A    between atoms: _164  and  _167
REMARK   68  A    between atoms: _167  and  _168
REMARK   69  A    between atoms: _168  and  _169
REMARK   70  A    between atoms: _169  and  _170
REMARK   71  A    between atoms: _170  and  _171
REMARK   72  A    between atoms: _175  and  _177
REMARK   73  A    between atoms: _177  and  _178
REMARK   74  A    between atoms: _177  and  _180
REMARK   75  A    between atoms: _180  and  _181
REMARK   76  A    between atoms: _184  and  _186
REMARK   77  A    between atoms: _186  and  _187
REMARK   78  A    between atoms: _186  and  _189
REMARK   79  A    between atoms: _189  and  _190
REMARK   80  A    between atoms: _193  and  _195
REMARK   81  A    between atoms: _195  and  _196
REMARK   82  A    between atoms: _195  and  _198
REMARK   83  A    between atoms: _198  and  _199
REMARK   84  A    between atoms: _204  and  _206
REMARK   85  A    between atoms: _206  and  _207
REMARK   86  A    between atoms: _206  and  _209
REMARK   87  A    between atoms: _209  and  _210
REMARK   88  A    between atoms: _213  and  _215
REMARK   89  A    between atoms: _215  and  _216
REMARK   90  A    between atoms: _215  and  _218
REMARK   91  A    between atoms: _218  and  _219
REMARK   92  A    between atoms: _221  and  _223
REMARK   93  A    between atoms: _223  and  _224
REMARK   94  A    between atoms: _223  and  _226
REMARK   95  A    between atoms: _226  and  _227
REMARK   96  A    between atoms: _230  and  _232
REMARK   97  A    between atoms: _232  and  _233
REMARK   98  A    between atoms: _232  and  _235
REMARK   99  A    between atoms: _238  and  _240
REMARK  100  A    between atoms: _240  and  _241
REMARK  101  A    between atoms: _240  and  _243
REMARK  102  A    between atoms: _243  and  _244
REMARK  103  A    between atoms: _247  and  _249
REMARK  104  A    between atoms: _249  and  _250
REMARK  105  A    between atoms: _249  and  _252
REMARK  106  A    between atoms: _252  and  _253
REMARK  107  A    between atoms: _256  and  _258
REMARK  108  A    between atoms: _258  and  _259
REMARK  109  A    between atoms: _258  and  _261
REMARK  110  A    between atoms: _264  and  _266
REMARK  111  A    between atoms: _266  and  _267
REMARK  112  A    between atoms: _266  and  _269
REMARK  113  A    between atoms: _269  and  _270
REMARK  114  A    between atoms: _270  and  _271
REMARK  115  A    between atoms: _273  and  _275
REMARK  116  A    between atoms: _275  and  _276
REMARK  117  A    between atoms: _275  and  _278
REMARK  118  A    between atoms: _278  and  _279
REMARK  119  A    between atoms: _284  and  _286
REMARK  120  A    between atoms: _286  and  _287
REMARK  121  A    between atoms: _286  and  _289
REMARK  122  A    between atoms: _289  and  _290
REMARK  123  A    between atoms: _290  and  _291
REMARK  124  A    between atoms: _293  and  _295
REMARK  125  A    between atoms: _295  and  _296
REMARK  126  A    between atoms: _295  and  _298
REMARK  127  A    between atoms: _298  and  _299
REMARK  128  A    between atoms: _304  and  _306
REMARK  129  A    between atoms: _306  and  _307
REMARK  130  A    between atoms: _306  and  _309
REMARK  131  A    between atoms: _312  and  _314
REMARK  132  A    between atoms: _314  and  _315
REMARK  133  A    between atoms: _314  and  _317
REMARK  134  A    between atoms: _317  and  _318
REMARK  135  A    between atoms: _318  and  _319
REMARK  136  A    between atoms: _324  and  _326
REMARK  137  A    between atoms: _326  and  _327
REMARK  138  A    between atoms: _326  and  _329
REMARK  139  A    between atoms: _329  and  _330
REMARK  140  A    between atoms: _335  and  _337
REMARK  141  A    between atoms: _337  and  _338
REMARK  142  A    between atoms: _337  and  _340
REMARK  143  A    between atoms: _340  and  _341
REMARK  144  A    between atoms: _343  and  _345
REMARK  145  A    between atoms: _345  and  _346
REMARK  146  A    between atoms: _345  and  _348
REMARK  147  A    between atoms: _348  and  _349
REMARK  148  A    between atoms: _352  and  _353
REMARK                            x       y       z     vdW  Elec       q    Type
REMARK                         _______ _______ _______ _____ _____    ______ ____
ROOT
ATOM      1  C   SER A   1      22.419  52.059   9.636  0.00  0.00    +0.244 C 
ATOM      2  O   SER A   1      22.629  53.255   9.913  0.00  0.00    -0.273 OA
ATOM      3  N   PRO A   2      23.098  51.417   8.681  0.00  0.00    -0.273 N 
ATOM      4  CD  PRO A   2      23.188  49.952   8.508  0.00  0.00    +0.094 C 
ATOM      5  CG  PRO A   2      24.404  49.794   7.636  0.00  0.00    +0.024 C 
ATOM      6  CB  PRO A   2      24.411  51.024   6.758  0.00  0.00    +0.030 C 
ATOM      7  CA  PRO A   2      23.899  52.145   7.677  0.00  0.00    +0.140 C 
ENDROOT
BRANCH   7   8
ATOM      8  C   PRO A   2      23.087  53.190   6.874  0.00  0.00    +0.227 C 
ATOM      9  O   PRO A   2      22.825  53.032   5.669  0.00  0.00    -0.286 OA
ENDBRANCH   7   8
BRANCH   1  10
ATOM     10  CA  SER A   1      21.356  51.242  10.415  0.00  0.00    +0.175 C 
BRANCH  10  11
ATOM     11  N   SER A   1      21.233  51.728  11.781  0.00  0.00    -0.236 NA
ATOM     12  H   SER A   1      20.493  52.419  12.017  0.00  0.00    +0.142 HD
ENDBRANCH  10  11
BRANCH  10  13
ATOM     13  CB  SER A   1      20.000  51.323   9.706  0.00  0.00    +0.163 C 
BRANCH  13  14
ATOM     14  OG  SER A   1      19.979  50.485   8.553  0.00  0.00    -0.380 OA
ATOM     15  H   SER A   1      19.095  50.554   8.113  0.00  0.00    +0.211 HD
ENDBRANCH  13  14
ENDBRANCH  10  13
ENDBRANCH   1  10
TORSDOF 5
REMARK  Name = ../refined-set-2016/1sbr/1sbr_pocket.pdb
REMARK  148 active torsions:
REMARK  status: ('A' for Active; 'I' for Inactive)
REMARK    1  A    between atoms: _1  and  _3
REMARK    2  A    between atoms: _3  and  _4
REMARK    3  A    between atoms: _3  and  _6
REMARK    4  A    between atoms: _6  and  _7
REMARK    5  A    between atoms: _13  and  _15
REMARK    6  A    between atoms: _15  and  _16
REMARK    7  A    between atoms: _15  and  _18
REMARK    8  A    between atoms: _18  and  _19
REMARK    9  A    between atoms: _19  and  _20
REMARK   10  A    between atoms: _20  and  _21
REMARK   11  A    between atoms: _30  and  _32
REMARK   12  A    between atoms: _32  and  _33
REMARK   13  A    between atoms: _32  and  _35
REMARK   14  A    between atoms: _35  and  _36
REMARK   15  A    between atoms: _42  and  _44
REMARK   16  A    between atoms: _44  and  _45
REMARK   17  A    between atoms: _44  and  _47
REMARK   18  A    between atoms: _47  and  _48
REMARK   19  A    between atoms: _50  and  _52
REMARK   20  A    between atoms: _52  and  _53
REMARK   21  A    between atoms: _52  and  _55
REMARK   22  A    between atoms: _55  and  _56
REMARK   23  A    between atoms: _59  and  _61
REMARK   24  A    between atoms: _61  and  _62
REMARK   25  A    between atoms: _61  and  _64
REMARK   26  A    between atoms: _64  and  _65
REMARK   27  A    between atoms: _70  and  _71
REMARK   28  A    between atoms: _74  and  _75
REMARK   29  A    between atoms: _80  and  _82
REMARK   30  A    between atoms: _82  and  _83
REMARK   31  A    between atoms: _82  and  _85
REMARK   32  A    between atoms: _85  and  _86
REMARK   33  A    between atoms: _92  and  _94
REMARK   34  A    between atoms: _94  and  _95
REMARK   35  A    between atoms: _94  and  _97
REMARK   36  A    between atoms: _97  and  _98
REMARK   37  A    between atoms: _101  and  _103
REMARK   38  A    between atoms: _103  and  _104
REMARK   39  A    between atoms: _103  and  _106
REMARK   40  A    between atoms: _106  and  _107
REMARK   41  A    between atoms: _109  and  _111
REMARK   42  A    between atoms: _111  and  _112
REMARK   43  A    between atoms: _111  and  _114
REMARK   44  A    between atoms: _117  and  _119
REMARK   45  A    between atoms: _119  and  _120
REMARK   46  A    between atoms: _119  and  _122
REMARK   47  A    between atoms: _122  and  _123
REMARK   48  A    between atoms: _126  and  _128
REMARK   49  A    between atoms: _128  and  _129
REMARK   50  A    between atoms: _128  and  _131
REMARK   51  A    between atoms: _131  and  _132
REMARK   52  A    between atoms: _132  and  _133
REMARK   53  A    between atoms: _133  and  _134
REMARK   54  A    between atoms: _134  and  _135
REMARK   55  A    between atoms: _139  and  _141
REMARK   56  A    between atoms: _141  and  _142
REMARK   57  A    between atoms: _141  and  _144
REMARK   58  A    between atoms: _144  and  _145
REMARK   59  A    between atoms: _147  and  _149
REMARK   60  A    between atoms: _149  and  _150
REMARK   61  A    between atoms: _153  and  _155
REMARK   62  A    between atoms: _155  and  _156
REMARK   63  A    between atoms: _155  and  _158
REMARK   64  A    between atoms: _158  and  _159
REMARK   65  A    between atoms: _162  and  _164
REMARK   66  A    between atoms: _164  and  _165
REMARK   67  A    between atoms: _164  and  _167
REMARK   68  A    between atoms: _167  and  _168
REMARK   69  A    between atoms: _168  and  _169
REMARK   70  A    between atoms: _169  and  _170
REMARK   71  A    between atoms: _170  and  _171
REMARK   72  A    between atoms: _175  and  _177
REMARK   73  A    between atoms: _177  and  _178
REMARK   74  A    between atoms: _177  and  _180
REMARK   75  A    between atoms: _180  and  _181
REMARK   76  A    between atoms: _184  and  _186
REMARK   77  A    between atoms: _186  and  _187
REMARK   78  A    between atoms: _186  and  _189
REMARK   79  A    between atoms: _189  and  _190
REMARK   80  A    between atoms: _193  and  _195
REMARK   81  A    between atoms: _195  and  _196
REMARK   82  A    between atoms: _195  and  _198
REMARK   83  A    between atoms: _198  and  _199
REMARK   84  A    between atoms: _204  and  _206
REMARK   85  A    between atoms: _206  and  _207
REMARK   86  A    between atoms: _206  and  _209
REMARK   87  A    between atoms: _209  and  _210
REMARK   88  A    between atoms: _213  and  _215
REMARK   89  A    between atoms: _215  and  _216
REMARK   90  A    between atoms: _215  and  _218
REMARK   91  A    between atoms: _218  and  _219
REMARK   92  A    between atoms: _221  and  _223
REMARK   93  A    between atoms: _223  and  _224
REMARK   94  A    between atoms: _223  and  _226
REMARK   95  A    between atoms: _226  and  _227
REMARK   96  A    between atoms: _230  and  _232
REMARK   97  A    between atoms: _232  and  _233
REMARK   98  A    between atoms: _232  and  _235
REMARK   99  A    between atoms: _238  and  _240
REMARK  100  A    between atoms: _240  and  _241
REMARK  101  A    between atoms: _240  and  _243
REMARK  102  A    between atoms: _243  and  _244
REMARK  103  A    between atoms: _247  and  _249
REMARK  104  A    between atoms: _249  and  _250
REMARK  105  A    between atoms: _249  and  _252
REMARK  106  A    between atoms: _252  and  _253
REMARK  107  A    between atoms: _256  and  _258
REMARK  108  A    between atoms: _258  and  _259
REMARK  109  A    between atoms: _258  and  _261
REMARK  110  A    between atoms: _264  and  _266
REMARK  111  A    between atoms: _266  and  _267
REMARK  112  A    between atoms: _266  and  _269
REMARK  113  A    between atoms: _269  and  _270
REMARK  114  A    between atoms: _270  and  _271
REMARK  115  A    between atoms: _273  and  _275
REMARK  116  A    between atoms: _275  and  _276
REMARK  117  A    between atoms: _275  and  _278
REMARK  118  A    between atoms: _278  and  _279
REMARK  119  A    between atoms: _284  and  _286
REMARK  120  A    between atoms: _286  and  _287
REMARK  121  A    between atoms: _286  and  _289
REMARK  122  A    between atoms: _289  and  _290
REMARK  123  A    between atoms: _290  and  _291
REMARK  124  A    between atoms: _293  and  _295
REMARK  125  A    between atoms: _295  and  _296
REMARK  126  A    between atoms: _295  and  _298
REMARK  127  A    between atoms: _298  and  _299
REMARK  128  A    between atoms: _304  and  _306
REMARK  129  A    between atoms: _306  and  _307
REMARK  130  A    between atoms: _306  and  _309
REMARK  131  A    between atoms: _312  and  _314
REMARK  132  A    between atoms: _314  and  _315
REMARK  133  A    between atoms: _314  and  _317
REMARK  134  A    between atoms: _317  and  _318
REMARK  135  A    between atoms: _318  and  _319
REMARK  136  A    between atoms: _324  and  _326
REMARK  137  A    between atoms: _326  and  _327
REMARK  138  A    between atoms: _326  and  _329
REMARK  139  A    between atoms: _329  and  _330
REMARK  140  A    between atoms: _335  and  _337
REMARK  141  A    between atoms: _337  and  _338
REMARK  142  A    between atoms: _337  and  _340
REMARK  143  A    between atoms: _340  and  _341
REMARK  144  A    between atoms: _343  and  _345
REMARK  145  A    between atoms: _345  and  _346
REMARK  146  A    between atoms: _345  and  _348
REMARK  147  A    between atoms: _348  and  _349
REMARK  148  A    between atoms: _352  and  _353
REMARK                            x       y       z     vdW  Elec       q    Type
REMARK                         _______ _______ _______ _____ _____    ______ ____
ROOT
ATOM      1  O   HOH     1      14.265  53.320   1.885  0.00  0.00    +0.000 OA
ENDROOT
TORSDOF 0
REMARK  Name = ../refined-set-2016/1sbr/1sbr_pocket.pdb
REMARK  148 active torsions:
REMARK  status: ('A' for Active; 'I' for Inactive)
REMARK    1  A    between atoms: _1  and  _3
REMARK    2  A    between atoms: _3  and  _4
REMARK    3  A    between atoms: _3  and  _6
REMARK    4  A    between atoms: _6  and  _7
REMARK    5  A    between atoms: _13  and  _15
REMARK    6  A    between atoms: _15  and  _16
REMARK    7  A    between atoms: _15  and  _18
REMARK    8  A    between atoms: _18  and  _19
REMARK    9  A    between atoms: _19  and  _20
REMARK   10  A    between atoms: _20  and  _21
REMARK   11  A    between atoms: _30  and  _32
REMARK   12  A    between atoms: _32  and  _33
REMARK   13  A    between atoms: _32  and  _35
REMARK   14  A    between atoms: _35  and  _36
REMARK   15  A    between atoms: _42  and  _44
REMARK   16  A    between atoms: _44  and  _45
REMARK   17  A    between atoms: _44  and  _47
REMARK   18  A    between atoms: _47  and  _48
REMARK   19  A    between atoms: _50  and  _52
REMARK   20  A    between atoms: _52  and  _53
REMARK   21  A    between atoms: _52  and  _55
REMARK   22  A    between atoms: _55  and  _56
REMARK   23  A    between atoms: _59  and  _61
REMARK   24  A    between atoms: _61  and  _62
REMARK   25  A    between atoms: _61  and  _64
REMARK   26  A    between atoms: _64  and  _65
REMARK   27  A    between atoms: _70  and  _71
REMARK   28  A    between atoms: _74  and  _75
REMARK   29  A    between atoms: _80  and  _82
REMARK   30  A    between atoms: _82  and  _83
REMARK   31  A    between atoms: _82  and  _85
REMARK   32  A    between atoms: _85  and  _86
REMARK   33  A    between atoms: _92  and  _94
REMARK   34  A    between atoms: _94  and  _95
REMARK   35  A    between atoms: _94  and  _97
REMARK   36  A    between atoms: _97  and  _98
REMARK   37  A    between atoms: _101  and  _103
REMARK   38  A    between atoms: _103  and  _104
REMARK   39  A    between atoms: _103  and  _106
REMARK   40  A    between atoms: _106  and  _107
REMARK   41  A    between atoms: _109  and  _111
REMARK   42  A    between atoms: _111  and  _112
REMARK   43  A    between atoms: _111  and  _114
REMARK   44  A    between atoms: _117  and  _119
REMARK   45  A    between atoms: _119  and  _120
REMARK   46  A    between atoms: _119  and  _122
REMARK   47  A    between atoms: _122  and  _123
REMARK   48  A    between atoms: _126  and  _128
REMARK   49  A    between atoms: _128  and  _129
REMARK   50  A    between atoms: _128  and  _131
REMARK   51  A    between atoms: _131  and  _132
REMARK   52  A    between atoms: _132  and  _133
REMARK   53  A    between atoms: _133  and  _134
REMARK   54  A    between atoms: _134  and  _135
REMARK   55  A    between atoms: _139  and  _141
REMARK   56  A    between atoms: _141  and  _142
REMARK   57  A    between atoms: _141  and  _144
REMARK   58  A    between atoms: _144  and  _145
REMARK   59  A    between atoms: _147  and  _149
REMARK   60  A    between atoms: _149  and  _150
REMARK   61  A    between atoms: _153  and  _155
REMARK   62  A    between atoms: _155  and  _156
REMARK   63  A    between atoms: _155  and  _158
REMARK   64  A    between atoms: _158  and  _159
REMARK   65  A    between atoms: _162  and  _164
REMARK   66  A    between atoms: _164  and  _165
REMARK   67  A    between atoms: _164  and  _167
REMARK   68  A    between atoms: _167  and  _168
REMARK   69  A    between atoms: _168  and  _169
REMARK   70  A    between atoms: _169  and  _170
REMARK   71  A    between atoms: _170  and  _171
REMARK   72  A    between atoms: _175  and  _177
REMARK   73  A    between atoms: _177  and  _178
REMARK   74  A    between atoms: _177  and  _180
REMARK   75  A    between atoms: _180  and  _181
REMARK   76  A    between atoms: _184  and  _186
REMARK   77  A    between atoms: _186  and  _187
REMARK   78  A    between atoms: _186  and  _189
REMARK   79  A    between atoms: _189  and  _190
REMARK   80  A    between atoms: _193  and  _195
REMARK   81  A    between atoms: _195  and  _196
REMARK   82  A    between atoms: _195  and  _198
REMARK   83  A    between atoms: _198  and  _199
REMARK   84  A    between atoms: _204  and  _206
REMARK   85  A    between atoms: _206  and  _207
REMARK   86  A    between atoms: _206  and  _209
REMARK   87  A    between atoms: _209  and  _210
REMARK   88  A    between atoms: _213  and  _215
REMARK   89  A    between atoms: _215  and  _216
REMARK   90  A    between atoms: _215  and  _218
REMARK   91  A    between atoms: _218  and  _219
REMARK   92  A    between atoms: _221  and  _223
REMARK   93  A    between atoms: _223  and  _224
REMARK   94  A    between atoms: _223  and  _226
REMARK   95  A    between atoms: _226  and  _227
REMARK   96  A    between atoms: _230  and  _232
REMARK   97  A    between atoms: _232  and  _233
REMARK   98  A    between atoms: _232  and  _235
REMARK   99  A    between atoms: _238  and  _240
REMARK  100  A    between atoms: _240  and  _241
REMARK  101  A    between atoms: _240  and  _243
REMARK  102  A    between atoms: _243  and  _244
REMARK  103  A    between atoms: _247  and  _249
REMARK  104  A    between atoms: _249  and  _250
REMARK  105  A    between atoms: _249  and  _252
REMARK  106  A    between atoms: _252  and  _253
REMARK  107  A    between atoms: _256  and  _258
REMARK  108  A    between atoms: _258  and  _259
REMARK  109  A    between atoms: _258  and  _261
REMARK  110  A    between atoms: _264  and  _266
REMARK  111  A    between atoms: _266  and  _267
REMARK  112  A    between atoms: _266  and  _269
REMARK  113  A    between atoms: _269  and  _270
REMARK  114  A    between atoms: _270  and  _271
REMARK  115  A    between atoms: _273  and  _275
REMARK  116  A    between atoms: _275  and  _276
REMARK  117  A    between atoms: _275  and  _278
REMARK  118  A    between atoms: _278  and  _279
REMARK  119  A    between atoms: _284  and  _286
REMARK  120  A    between atoms: _286  and  _287
REMARK  121  A    between atoms: _286  and  _289
REMARK  122  A    between atoms: _289  and  _290
REMARK  123  A    between atoms: _290  and  _291
REMARK  124  A    between atoms: _293  and  _295
REMARK  125  A    between atoms: _295  and  _296
REMARK  126  A    between atoms: _295  and  _298
REMARK  127  A    between atoms: _298  and  _299
REMARK  128  A    between atoms: _304  and  _306
REMARK  129  A    between atoms: _306  and  _307
REMARK  130  A    between atoms: _306  and  _309
REMARK  131  A    between atoms: _312  and  _314
REMARK  132  A    between atoms: _314  and  _315
REMARK  133  A    between atoms: _314  and  _317
REMARK  134  A    between atoms: _317  and  _318
REMARK  135  A    between atoms: _318  and  _319
REMARK  136  A    between atoms: _324  and  _326
REMARK  137  A    between atoms: _326  and  _327
REMARK  138  A    between atoms: _326  and  _329
REMARK  139  A    between atoms: _329  and  _330
REMARK  140  A    between atoms: _335  and  _337
REMARK  141  A    between atoms: _337  and  _338
REMARK  142  A    between atoms: _337  and  _340
REMARK  143  A    between atoms: _340  and  _341
REMARK  144  A    between atoms: _343  and  _345
REMARK  145  A    between atoms: _345  and  _346
REMARK  146  A    between atoms: _345  and  _348
REMARK  147  A    between atoms: _348  and  _349
REMARK  148  A    between atoms: _352  and  _353
REMARK                            x       y       z     vdW  Elec       q    Type
REMARK                         _______ _______ _______ _____ _____    ______ ____
ROOT
ATOM      1  O   HOH     1      16.033  45.913   9.480  0.00  0.00    +0.000 OA
ENDROOT
TORSDOF 0
REMARK  Name = ../refined-set-2016/1sbr/1sbr_pocket.pdb
REMARK  148 active torsions:
REMARK  status: ('A' for Active; 'I' for Inactive)
REMARK    1  A    between atoms: _1  and  _3
REMARK    2  A    between atoms: _3  and  _4
REMARK    3  A    between atoms: _3  and  _6
REMARK    4  A    between atoms: _6  and  _7
REMARK    5  A    between atoms: _13  and  _15
REMARK    6  A    between atoms: _15  and  _16
REMARK    7  A    between atoms: _15  and  _18
REMARK    8  A    between atoms: _18  and  _19
REMARK    9  A    between atoms: _19  and  _20
REMARK   10  A    between atoms: _20  and  _21
REMARK   11  A    between atoms: _30  and  _32
REMARK   12  A    between atoms: _32  and  _33
REMARK   13  A    between atoms: _32  and  _35
REMARK   14  A    between atoms: _35  and  _36
REMARK   15  A    between atoms: _42  and  _44
REMARK   16  A    between atoms: _44  and  _45
REMARK   17  A    between atoms: _44  and  _47
REMARK   18  A    between atoms: _47  and  _48
REMARK   19  A    between atoms: _50  and  _52
REMARK   20  A    between atoms: _52  and  _53
REMARK   21  A    between atoms: _52  and  _55
REMARK   22  A    between atoms: _55  and  _56
REMARK   23  A    between atoms: _59  and  _61
REMARK   24  A    between atoms: _61  and  _62
REMARK   25  A    between atoms: _61  and  _64
REMARK   26  A    between atoms: _64  and  _65
REMARK   27  A    between atoms: _70  and  _71
REMARK   28  A    between atoms: _74  and  _75
REMARK   29  A    between atoms: _80  and  _82
REMARK   30  A    between atoms: _82  and  _83
REMARK   31  A    between atoms: _82  and  _85
REMARK   32  A    between atoms: _85  and  _86
REMARK   33  A    between atoms: _92  and  _94
REMARK   34  A    between atoms: _94  and  _95
REMARK   35  A    between atoms: _94  and  _97
REMARK   36  A    between atoms: _97  and  _98
REMARK   37  A    between atoms: _101  and  _103
REMARK   38  A    between atoms: _103  and  _104
REMARK   39  A    between atoms: _103  and  _106
REMARK   40  A    between atoms: _106  and  _107
REMARK   41  A    between atoms: _109  and  _111
REMARK   42  A    between atoms: _111  and  _112
REMARK   43  A    between atoms: _111  and  _114
REMARK   44  A    between atoms: _117  and  _119
REMARK   45  A    between atoms: _119  and  _120
REMARK   46  A    between atoms: _119  and  _122
REMARK   47  A    between atoms: _122  and  _123
REMARK   48  A    between atoms: _126  and  _128
REMARK   49  A    between atoms: _128  and  _129
REMARK   50  A    between atoms: _128  and  _131
REMARK   51  A    between atoms: _131  and  _132
REMARK   52  A    between atoms: _132  and  _133
REMARK   53  A    between atoms: _133  and  _134
REMARK   54  A    between atoms: _134  and  _135
REMARK   55  A    between atoms: _139  and  _141
REMARK   56  A    between atoms: _141  and  _142
REMARK   57  A    between atoms: _141  and  _144
REMARK   58  A    between atoms: _144  and  _145
REMARK   59  A    between atoms: _147  and  _149
REMARK   60  A    between atoms: _149  and  _150
REMARK   61  A    between atoms: _153  and  _155
REMARK   62  A    between atoms: _155  and  _156
REMARK   63  A    between atoms: _155  and  _158
REMARK   64  A    between atoms: _158  and  _159
REMARK   65  A    between atoms: _162  and  _164
REMARK   66  A    between atoms: _164  and  _165
REMARK   67  A    between atoms: _164  and  _167
REMARK   68  A    between atoms: _167  and  _168
REMARK   69  A    between atoms: _168  and  _169
REMARK   70  A    between atoms: _169  and  _170
REMARK   71  A    between atoms: _170  and  _171
REMARK   72  A    between atoms: _175  and  _177
REMARK   73  A    between atoms: _177  and  _178
REMARK   74  A    between atoms: _177  and  _180
REMARK   75  A    between atoms: _180  and  _181
REMARK   76  A    between atoms: _184  and  _186
REMARK   77  A    between atoms: _186  and  _187
REMARK   78  A    between atoms: _186  and  _189
REMARK   79  A    between atoms: _189  and  _190
REMARK   80  A    between atoms: _193  and  _195
REMARK   81  A    between atoms: _195  and  _196
REMARK   82  A    between atoms: _195  and  _198
REMARK   83  A    between atoms: _198  and  _199
REMARK   84  A    between atoms: _204  and  _206
REMARK   85  A    between atoms: _206  and  _207
REMARK   86  A    between atoms: _206  and  _209
REMARK   87  A    between atoms: _209  and  _210
REMARK   88  A    between atoms: _213  and  _215
REMARK   89  A    between atoms: _215  and  _216
REMARK   90  A    between atoms: _215  and  _218
REMARK   91  A    between atoms: _218  and  _219
REMARK   92  A    between atoms: _221  and  _223
REMARK   93  A    between atoms: _223  and  _224
REMARK   94  A    between atoms: _223  and  _226
REMARK   95  A    between atoms: _226  and  _227
REMARK   96  A    between atoms: _230  and  _232
REMARK   97  A    between atoms: _232  and  _233
REMARK   98  A    between atoms: _232  and  _235
REMARK   99  A    between atoms: _238  and  _240
REMARK  100  A    between atoms: _240  and  _241
REMARK  101  A    between atoms: _240  and  _243
REMARK  102  A    between atoms: _243  and  _244
REMARK  103  A    between atoms: _247  and  _249
REMARK  104  A    between atoms: _249  and  _250
REMARK  105  A    between atoms: _249  and  _252
REMARK  106  A    between atoms: _252  and  _253
REMARK  107  A    between atoms: _256  and  _258
REMARK  108  A    between atoms: _258  and  _259
REMARK  109  A    between atoms: _258  and  _261
REMARK  110  A    between atoms: _264  and  _266
REMARK  111  A    between atoms: _266  and  _267
REMARK  112  A    between atoms: _266  and  _269
REMARK  113  A    between atoms: _269  and  _270
REMARK  114  A    between atoms: _270  and  _271
REMARK  115  A    between atoms: _273  and  _275
REMARK  116  A    between atoms: _275  and  _276
REMARK  117  A    between atoms: _275  and  _278
REMARK  118  A    between atoms: _278  and  _279
REMARK  119  A    between atoms: _284  and  _286
REMARK  120  A    between atoms: _286  and  _287
REMARK  121  A    between atoms: _286  and  _289
REMARK  122  A    between atoms: _289  and  _290
REMARK  123  A    between atoms: _290  and  _291
REMARK  124  A    between atoms: _293  and  _295
REMARK  125  A    between atoms: _295  and  _296
REMARK  126  A    between atoms: _295  and  _298
REMARK  127  A    between atoms: _298  and  _299
REMARK  128  A    between atoms: _304  and  _306
REMARK  129  A    between atoms: _306  and  _307
REMARK  130  A    between atoms: _306  and  _309
REMARK  131  A    between atoms: _312  and  _314
REMARK  132  A    between atoms: _314  and  _315
REMARK  133  A    between atoms: _314  and  _317
REMARK  134  A    between atoms: _317  and  _318
REMARK  135  A    between atoms: _318  and  _319
REMARK  136  A    between atoms: _324  and  _326
REMARK  137  A    between atoms: _326  and  _327
REMARK  138  A    between atoms: _326  and  _329
REMARK  139  A    between atoms: _329  and  _330
REMARK  140  A    between atoms: _335  and  _337
REMARK  141  A    between atoms: _337  and  _338
REMARK  142  A    between atoms: _337  and  _340
REMARK  143  A    between atoms: _340  and  _341
REMARK  144  A    between atoms: _343  and  _345
REMARK  145  A    between atoms: _345  and  _346
REMARK  146  A    between atoms: _345  and  _348
REMARK  147  A    between atoms: _348  and  _349
REMARK  148  A    between atoms: _352  and  _353
REMARK                            x       y       z     vdW  Elec       q    Type
REMARK                         _______ _______ _______ _____ _____    ______ ____
ROOT
ATOM      1  O   HOH     1      17.442  40.800  -3.457  0.00  0.00    +0.000 OA
ENDROOT
TORSDOF 0
REMARK  Name = ../refined-set-2016/1sbr/1sbr_pocket.pdb
REMARK  148 active torsions:
REMARK  status: ('A' for Active; 'I' for Inactive)
REMARK    1  A    between atoms: _1  and  _3
REMARK    2  A    between atoms: _3  and  _4
REMARK    3  A    between atoms: _3  and  _6
REMARK    4  A    between atoms: _6  and  _7
REMARK    5  A    between atoms: _13  and  _15
REMARK    6  A    between atoms: _15  and  _16
REMARK    7  A    between atoms: _15  and  _18
REMARK    8  A    between atoms: _18  and  _19
REMARK    9  A    between atoms: _19  and  _20
REMARK   10  A    between atoms: _20  and  _21
REMARK   11  A    between atoms: _30  and  _32
REMARK   12  A    between atoms: _32  and  _33
REMARK   13  A    between atoms: _32  and  _35
REMARK   14  A    between atoms: _35  and  _36
REMARK   15  A    between atoms: _42  and  _44
REMARK   16  A    between atoms: _44  and  _45
REMARK   17  A    between atoms: _44  and  _47
REMARK   18  A    between atoms: _47  and  _48
REMARK   19  A    between atoms: _50  and  _52
REMARK   20  A    between atoms: _52  and  _53
REMARK   21  A    between atoms: _52  and  _55
REMARK   22  A    between atoms: _55  and  _56
REMARK   23  A    between atoms: _59  and  _61
REMARK   24  A    between atoms: _61  and  _62
REMARK   25  A    between atoms: _61  and  _64
REMARK   26  A    between atoms: _64  and  _65
REMARK   27  A    between atoms: _70  and  _71
REMARK   28  A    between atoms: _74  and  _75
REMARK   29  A    between atoms: _80  and  _82
REMARK   30  A    between atoms: _82  and  _83
REMARK   31  A    between atoms: _82  and  _85
REMARK   32  A    between atoms: _85  and  _86
REMARK   33  A    between atoms: _92  and  _94
REMARK   34  A    between atoms: _94  and  _95
REMARK   35  A    between atoms: _94  and  _97
REMARK   36  A    between atoms: _97  and  _98
REMARK   37  A    between atoms: _101  and  _103
REMARK   38  A    between atoms: _103  and  _104
REMARK   39  A    between atoms: _103  and  _106
REMARK   40  A    between atoms: _106  and  _107
REMARK   41  A    between atoms: _109  and  _111
REMARK   42  A    between atoms: _111  and  _112
REMARK   43  A    between atoms: _111  and  _114
REMARK   44  A    between atoms: _117  and  _119
REMARK   45  A    between atoms: _119  and  _120
REMARK   46  A    between atoms: _119  and  _122
REMARK   47  A    between atoms: _122  and  _123
REMARK   48  A    between atoms: _126  and  _128
REMARK   49  A    between atoms: _128  and  _129
REMARK   50  A    between atoms: _128  and  _131
REMARK   51  A    between atoms: _131  and  _132
REMARK   52  A    between atoms: _132  and  _133
REMARK   53  A    between atoms: _133  and  _134
REMARK   54  A    between atoms: _134  and  _135
REMARK   55  A    between atoms: _139  and  _141
REMARK   56  A    between atoms: _141  and  _142
REMARK   57  A    between atoms: _141  and  _144
REMARK   58  A    between atoms: _144  and  _145
REMARK   59  A    between atoms: _147  and  _149
REMARK   60  A    between atoms: _149  and  _150
REMARK   61  A    between atoms: _153  and  _155
REMARK   62  A    between atoms: _155  and  _156
REMARK   63  A    between atoms: _155  and  _158
REMARK   64  A    between atoms: _158  and  _159
REMARK   65  A    between atoms: _162  and  _164
REMARK   66  A    between atoms: _164  and  _165
REMARK   67  A    between atoms: _164  and  _167
REMARK   68  A    between atoms: _167  and  _168
REMARK   69  A    between atoms: _168  and  _169
REMARK   70  A    between atoms: _169  and  _170
REMARK   71  A    between atoms: _170  and  _171
REMARK   72  A    between atoms: _175  and  _177
REMARK   73  A    between atoms: _177  and  _178
REMARK   74  A    between atoms: _177  and  _180
REMARK   75  A    between atoms: _180  and  _181
REMARK   76  A    between atoms: _184  and  _186
REMARK   77  A    between atoms: _186  and  _187
REMARK   78  A    between atoms: _186  and  _189
REMARK   79  A    between atoms: _189  and  _190
REMARK   80  A    between atoms: _193  and  _195
REMARK   81  A    between atoms: _195  and  _196
REMARK   82  A    between atoms: _195  and  _198
REMARK   83  A    between atoms: _198  and  _199
REMARK   84  A    between atoms: _204  and  _206
REMARK   85  A    between atoms: _206  and  _207
REMARK   86  A    between atoms: _206  and  _209
REMARK   87  A    between atoms: _209  and  _210
REMARK   88  A    between atoms: _213  and  _215
REMARK   89  A    between atoms: _215  and  _216
REMARK   90  A    between atoms: _215  and  _218
REMARK   91  A    between atoms: _218  and  _219
REMARK   92  A    between atoms: _221  and  _223
REMARK   93  A    between atoms: _223  and  _224
REMARK   94  A    between atoms: _223  and  _226
REMARK   95  A    between atoms: _226  and  _227
REMARK   96  A    between atoms: _230  and  _232
REMARK   97  A    between atoms: _232  and  _233
REMARK   98  A    between atoms: _232  and  _235
REMARK   99  A    between atoms: _238  and  _240
REMARK  100  A    between atoms: _240  and  _241
REMARK  101  A    between atoms: _240  and  _243
REMARK  102  A    between atoms: _243  and  _244
REMARK  103  A    between atoms: _247  and  _249
REMARK  104  A    between atoms: _249  and  _250
REMARK  105  A    between atoms: _249  and  _252
REMARK  106  A    between atoms: _252  and  _253
REMARK  107  A    between atoms: _256  and  _258
REMARK  108  A    between atoms: _258  and  _259
REMARK  109  A    between atoms: _258  and  _261
REMARK  110  A    between atoms: _264  and  _266
REMARK  111  A    between atoms: _266  and  _267
REMARK  112  A    between atoms: _266  and  _269
REMARK  113  A    between atoms: _269  and  _270
REMARK  114  A    between atoms: _270  and  _271
REMARK  115  A    between atoms: _273  and  _275
REMARK  116  A    between atoms: _275  and  _276
REMARK  117  A    between atoms: _275  and  _278
REMARK  118  A    between atoms: _278  and  _279
REMARK  119  A    between atoms: _284  and  _286
REMARK  120  A    between atoms: _286  and  _287
REMARK  121  A    between atoms: _286  and  _289
REMARK  122  A    between atoms: _289  and  _290
REMARK  123  A    between atoms: _290  and  _291
REMARK  124  A    between atoms: _293  and  _295
REMARK  125  A    between atoms: _295  and  _296
REMARK  126  A    between atoms: _295  and  _298
REMARK  127  A    between atoms: _298  and  _299
REMARK  128  A    between atoms: _304  and  _306
REMARK  129  A    between atoms: _306  and  _307
REMARK  130  A    between atoms: _306  and  _309
REMARK  131  A    between atoms: _312  and  _314
REMARK  132  A    between atoms: _314  and  _315
REMARK  133  A    between atoms: _314  and  _317
REMARK  134  A    between atoms: _317  and  _318
REMARK  135  A    between atoms: _318  and  _319
REMARK  136  A    between atoms: _324  and  _326
REMARK  137  A    between atoms: _326  and  _327
REMARK  138  A    between atoms: _326  and  _329
REMARK  139  A    between atoms: _329  and  _330
REMARK  140  A    between atoms: _335  and  _337
REMARK  141  A    between atoms: _337  and  _338
REMARK  142  A    between atoms: _337  and  _340
REMARK  143  A    between atoms: _340  and  _341
REMARK  144  A    between atoms: _343  and  _345
REMARK  145  A    between atoms: _345  and  _346
REMARK  146  A    between atoms: _345  and  _348
REMARK  147  A    between atoms: _348  and  _349
REMARK  148  A    between atoms: _352  and  _353
REMARK                            x       y       z     vdW  Elec       q    Type
REMARK                         _______ _______ _______ _____ _____    ______ ____
ROOT
ATOM      1  O   HOH     1      25.884  40.511   4.675  0.00  0.00    +0.000 OA
ENDROOT
TORSDOF 0
REMARK  Name = ../refined-set-2016/1sbr/1sbr_pocket.pdb
REMARK  148 active torsions:
REMARK  status: ('A' for Active; 'I' for Inactive)
REMARK    1  A    between atoms: _1  and  _3
REMARK    2  A    between atoms: _3  and  _4
REMARK    3  A    between atoms: _3  and  _6
REMARK    4  A    between atoms: _6  and  _7
REMARK    5  A    between atoms: _13  and  _15
REMARK    6  A    between atoms: _15  and  _16
REMARK    7  A    between atoms: _15  and  _18
REMARK    8  A    between atoms: _18  and  _19
REMARK    9  A    between atoms: _19  and  _20
REMARK   10  A    between atoms: _20  and  _21
REMARK   11  A    between atoms: _30  and  _32
REMARK   12  A    between atoms: _32  and  _33
REMARK   13  A    between atoms: _32  and  _35
REMARK   14  A    between atoms: _35  and  _36
REMARK   15  A    between atoms: _42  and  _44
REMARK   16  A    between atoms: _44  and  _45
REMARK   17  A    between atoms: _44  and  _47
REMARK   18  A    between atoms: _47  and  _48
REMARK   19  A    between atoms: _50  and  _52
REMARK   20  A    between atoms: _52  and  _53
REMARK   21  A    between atoms: _52  and  _55
REMARK   22  A    between atoms: _55  and  _56
REMARK   23  A    between atoms: _59  and  _61
REMARK   24  A    between atoms: _61  and  _62
REMARK   25  A    between atoms: _61  and  _64
REMARK   26  A    between atoms: _64  and  _65
REMARK   27  A    between atoms: _70  and  _71
REMARK   28  A    between atoms: _74  and  _75
REMARK   29  A    between atoms: _80  and  _82
REMARK   30  A    between atoms: _82  and  _83
REMARK   31  A    between atoms: _82  and  _85
REMARK   32  A    between atoms: _85  and  _86
REMARK   33  A    between atoms: _92  and  _94
REMARK   34  A    between atoms: _94  and  _95
REMARK   35  A    between atoms: _94  and  _97
REMARK   36  A    between atoms: _97  and  _98
REMARK   37  A    between atoms: _101  and  _103
REMARK   38  A    between atoms: _103  and  _104
REMARK   39  A    between atoms: _103  and  _106
REMARK   40  A    between atoms: _106  and  _107
REMARK   41  A    between atoms: _109  and  _111
REMARK   42  A    between atoms: _111  and  _112
REMARK   43  A    between atoms: _111  and  _114
REMARK   44  A    between atoms: _117  and  _119
REMARK   45  A    between atoms: _119  and  _120
REMARK   46  A    between atoms: _119  and  _122
REMARK   47  A    between atoms: _122  and  _123
REMARK   48  A    between atoms: _126  and  _128
REMARK   49  A    between atoms: _128  and  _129
REMARK   50  A    between atoms: _128  and  _131
REMARK   51  A    between atoms: _131  and  _132
REMARK   52  A    between atoms: _132  and  _133
REMARK   53  A    between atoms: _133  and  _134
REMARK   54  A    between atoms: _134  and  _135
REMARK   55  A    between atoms: _139  and  _141
REMARK   56  A    between atoms: _141  and  _142
REMARK   57  A    between atoms: _141  and  _144
REMARK   58  A    between atoms: _144  and  _145
REMARK   59  A    between atoms: _147  and  _149
REMARK   60  A    between atoms: _149  and  _150
REMARK   61  A    between atoms: _153  and  _155
REMARK   62  A    between atoms: _155  and  _156
REMARK   63  A    between atoms: _155  and  _158
REMARK   64  A    between atoms: _158  and  _159
REMARK   65  A    between atoms: _162  and  _164
REMARK   66  A    between atoms: _164  and  _165
REMARK   67  A    between atoms: _164  and  _167
REMARK   68  A    between atoms: _167  and  _168
REMARK   69  A    between atoms: _168  and  _169
REMARK   70  A    between atoms: _169  and  _170
REMARK   71  A    between atoms: _170  and  _171
REMARK   72  A    between atoms: _175  and  _177
REMARK   73  A    between atoms: _177  and  _178
REMARK   74  A    between atoms: _177  and  _180
REMARK   75  A    between atoms: _180  and  _181
REMARK   76  A    between atoms: _184  and  _186
REMARK   77  A    between atoms: _186  and  _187
REMARK   78  A    between atoms: _186  and  _189
REMARK   79  A    between atoms: _189  and  _190
REMARK   80  A    between atoms: _193  and  _195
REMARK   81  A    between atoms: _195  and  _196
REMARK   82  A    between atoms: _195  and  _198
REMARK   83  A    between atoms: _198  and  _199
REMARK   84  A    between atoms: _204  and  _206
REMARK   85  A    between atoms: _206  and  _207
REMARK   86  A    between atoms: _206  and  _209
REMARK   87  A    between atoms: _209  and  _210
REMARK   88  A    between atoms: _213  and  _215
REMARK   89  A    between atoms: _215  and  _216
REMARK   90  A    between atoms: _215  and  _218
REMARK   91  A    between atoms: _218  and  _219
REMARK   92  A    between atoms: _221  and  _223
REMARK   93  A    between atoms: _223  and  _224
REMARK   94  A    between atoms: _223  and  _226
REMARK   95  A    between atoms: _226  and  _227
REMARK   96  A    between atoms: _230  and  _232
REMARK   97  A    between atoms: _232  and  _233
REMARK   98  A    between atoms: _232  and  _235
REMARK   99  A    between atoms: _238  and  _240
REMARK  100  A    between atoms: _240  and  _241
REMARK  101  A    between atoms: _240  and  _243
REMARK  102  A    between atoms: _243  and  _244
REMARK  103  A    between atoms: _247  and  _249
REMARK  104  A    between atoms: _249  and  _250
REMARK  105  A    between atoms: _249  and  _252
REMARK  106  A    between atoms: _252  and  _253
REMARK  107  A    between atoms: _256  and  _258
REMARK  108  A    between atoms: _258  and  _259
REMARK  109  A    between atoms: _258  and  _261
REMARK  110  A    between atoms: _264  and  _266
REMARK  111  A    between atoms: _266  and  _267
REMARK  112  A    between atoms: _266  and  _269
REMARK  113  A    between atoms: _269  and  _270
REMARK  114  A    between atoms: _270  and  _271
REMARK  115  A    between atoms: _273  and  _275
REMARK  116  A    between atoms: _275  and  _276
REMARK  117  A    between atoms: _275  and  _278
REMARK  118  A    between atoms: _278  and  _279
REMARK  119  A    between atoms: _284  and  _286
REMARK  120  A    between atoms: _286  and  _287
REMARK  121  A    between atoms: _286  and  _289
REMARK  122  A    between atoms: _289  and  _290
REMARK  123  A    between atoms: _290  and  _291
REMARK  124  A    between atoms: _293  and  _295
REMARK  125  A    between atoms: _295  and  _296
REMARK  126  A    between atoms: _295  and  _298
REMARK  127  A    between atoms: _298  and  _299
REMARK  128  A    between atoms: _304  and  _306
REMARK  129  A    between atoms: _306  and  _307
REMARK  130  A    between atoms: _306  and  _309
REMARK  131  A    between atoms: _312  and  _314
REMARK  132  A    between atoms: _314  and  _315
REMARK  133  A    between atoms: _314  and  _317
REMARK  134  A    between atoms: _317  and  _318
REMARK  135  A    between atoms: _318  and  _319
REMARK  136  A    between atoms: _324  and  _326
REMARK  137  A    between atoms: _326  and  _327
REMARK  138  A    between atoms: _326  and  _329
REMARK  139  A    between atoms: _329  and  _330
REMARK  140  A    between atoms: _335  and  _337
REMARK  141  A    between atoms: _337  and  _338
REMARK  142  A    between atoms: _337  and  _340
REMARK  143  A    between atoms: _340  and  _341
REMARK  144  A    between atoms: _343  and  _345
REMARK  145  A    between atoms: _345  and  _346
REMARK  146  A    between atoms: _345  and  _348
REMARK  147  A    between atoms: _348  and  _349
REMARK  148  A    between atoms: _352  and  _353
REMARK                            x       y       z     vdW  Elec       q    Type
REMARK                         _______ _______ _______ _____ _____    ______ ____
ROOT
ATOM      1  O   HOH     1       7.553  45.442   9.001  0.00  0.00    +0.000 OA
ENDROOT
TORSDOF 0
