REMARK  Name = ../refined-set-2016/3u6i/3u6i_pocket.pdb
REMARK  262 active torsions:
REMARK  status: ('A' for Active; 'I' for Inactive)
REMARK    1  A    between atoms: _1  and  _3
REMARK    2  A    between atoms: _3  and  _4
REMARK    3  A    between atoms: _3  and  _6
REMARK    4  A    between atoms: _9  and  _11
REMARK    5  A    between atoms: _11  and  _12
REMARK    6  A    between atoms: _11  and  _14
REMARK    7  A    between atoms: _17  and  _19
REMARK    8  A    between atoms: _19  and  _20
REMARK    9  A    between atoms: _19  and  _22
REMARK   10  A    between atoms: _22  and  _23
REMARK   11  A    between atoms: _26  and  _28
REMARK   12  A    between atoms: _28  and  _29
REMARK   13  A    between atoms: _31  and  _33
REMARK   14  A    between atoms: _33  and  _34
REMARK   15  A    between atoms: _33  and  _36
REMARK   16  A    between atoms: _36  and  _37
REMARK   17  A    between atoms: _37  and  _38
REMARK   18  A    between atoms: _38  and  _39
REMARK   19  A    between atoms: _48  and  _50
REMARK   20  A    between atoms: _50  and  _51
REMARK   21  A    between atoms: _53  and  _55
REMARK   22  A    between atoms: _55  and  _56
REMARK   23  A    between atoms: _55  and  _58
REMARK   24  A    between atoms: _58  and  _59
REMARK   25  A    between atoms: _64  and  _66
REMARK   26  A    between atoms: _66  and  _67
REMARK   27  A    between atoms: _66  and  _69
REMARK   28  A    between atoms: _69  and  _70
REMARK   29  A    between atoms: _76  and  _78
REMARK   30  A    between atoms: _78  and  _79
REMARK   31  A    between atoms: _81  and  _83
REMARK   32  A    between atoms: _83  and  _84
REMARK   33  A    between atoms: _83  and  _86
REMARK   34  A    between atoms: _88  and  _90
REMARK   35  A    between atoms: _90  and  _91
REMARK   36  A    between atoms: _90  and  _93
REMARK   37  A    between atoms: _96  and  _98
REMARK   38  A    between atoms: _98  and  _99
REMARK   39  A    between atoms: _98  and  _101
REMARK   40  A    between atoms: _101  and  _102
REMARK   41  A    between atoms: _107  and  _108
REMARK   42  A    between atoms: _110  and  _112
REMARK   43  A    between atoms: _112  and  _113
REMARK   44  A    between atoms: _112  and  _115
REMARK   45  A    between atoms: _115  and  _116
REMARK   46  A    between atoms: _121  and  _123
REMARK   47  A    between atoms: _123  and  _124
REMARK   48  A    between atoms: _123  and  _126
REMARK   49  A    between atoms: _126  and  _127
REMARK   50  A    between atoms: _132  and  _134
REMARK   51  A    between atoms: _134  and  _135
REMARK   52  A    between atoms: _134  and  _137
REMARK   53  A    between atoms: _139  and  _141
REMARK   54  A    between atoms: _141  and  _142
REMARK   55  A    between atoms: _145  and  _147
REMARK   56  A    between atoms: _147  and  _148
REMARK   57  A    between atoms: _147  and  _150
REMARK   58  A    between atoms: _153  and  _155
REMARK   59  A    between atoms: _155  and  _156
REMARK   60  A    between atoms: _155  and  _158
REMARK   61  A    between atoms: _158  and  _159
REMARK   62  A    between atoms: _159  and  _160
REMARK   63  A    between atoms: _160  and  _161
REMARK   64  A    between atoms: _161  and  _162
REMARK   65  A    between atoms: _166  and  _168
REMARK   66  A    between atoms: _168  and  _169
REMARK   67  A    between atoms: _168  and  _171
REMARK   68  A    between atoms: _171  and  _172
REMARK   69  A    between atoms: _174  and  _176
REMARK   70  A    between atoms: _176  and  _177
REMARK   71  A    between atoms: _176  and  _179
REMARK   72  A    between atoms: _179  and  _180
REMARK   73  A    between atoms: _183  and  _185
REMARK   74  A    between atoms: _185  and  _186
REMARK   75  A    between atoms: _185  and  _188
REMARK   76  A    between atoms: _188  and  _189
REMARK   77  A    between atoms: _192  and  _194
REMARK   78  A    between atoms: _194  and  _195
REMARK   79  A    between atoms: _194  and  _197
REMARK   80  A    between atoms: _197  and  _198
REMARK   81  A    between atoms: _198  and  _199
REMARK   82  A    between atoms: _202  and  _204
REMARK   83  A    between atoms: _204  and  _205
REMARK   84  A    between atoms: _204  and  _207
REMARK   85  A    between atoms: _210  and  _212
REMARK   86  A    between atoms: _212  and  _213
REMARK   87  A    between atoms: _212  and  _215
REMARK   88  A    between atoms: _215  and  _216
REMARK   89  A    between atoms: _216  and  _217
REMARK   90  A    between atoms: _222  and  _224
REMARK   91  A    between atoms: _224  and  _225
REMARK   92  A    between atoms: _224  and  _227
REMARK   93  A    between atoms: _227  and  _228
REMARK   94  A    between atoms: _234  and  _236
REMARK   95  A    between atoms: _236  and  _237
REMARK   96  A    between atoms: _236  and  _239
REMARK   97  A    between atoms: _239  and  _240
REMARK   98  A    between atoms: _243  and  _245
REMARK   99  A    between atoms: _245  and  _246
REMARK  100  A    between atoms: _245  and  _248
REMARK  101  A    between atoms: _248  and  _249
REMARK  102  A    between atoms: _252  and  _254
REMARK  103  A    between atoms: _254  and  _255
REMARK  104  A    between atoms: _254  and  _257
REMARK  105  A    between atoms: _257  and  _258
REMARK  106  A    between atoms: _258  and  _259
REMARK  107  A    between atoms: _262  and  _264
REMARK  108  A    between atoms: _264  and  _265
REMARK  109  A    between atoms: _267  and  _269
REMARK  110  A    between atoms: _269  and  _270
REMARK  111  A    between atoms: _269  and  _272
REMARK  112  A    between atoms: _272  and  _273
REMARK  113  A    between atoms: _276  and  _278
REMARK  114  A    between atoms: _278  and  _279
REMARK  115  A    between atoms: _278  and  _281
REMARK  116  A    between atoms: _281  and  _282
REMARK  117  A    between atoms: _285  and  _287
REMARK  118  A    between atoms: _287  and  _288
REMARK  119  A    between atoms: _287  and  _290
REMARK  120  A    between atoms: _290  and  _291
REMARK  121  A    between atoms: _291  and  _292
REMARK  122  A    between atoms: _294  and  _296
REMARK  123  A    between atoms: _296  and  _297
REMARK  124  A    between atoms: _296  and  _299
REMARK  125  A    between atoms: _299  and  _300
REMARK  126  A    between atoms: _300  and  _301
REMARK  127  A    between atoms: _301  and  _302
REMARK  128  A    between atoms: _302  and  _303
REMARK  129  A    between atoms: _307  and  _309
REMARK  130  A    between atoms: _309  and  _310
REMARK  131  A    between atoms: _309  and  _312
REMARK  132  A    between atoms: _312  and  _313
REMARK  133  A    between atoms: _319  and  _321
REMARK  134  A    between atoms: _321  and  _322
REMARK  135  A    between atoms: _321  and  _324
REMARK  136  A    between atoms: _327  and  _329
REMARK  137  A    between atoms: _329  and  _330
REMARK  138  A    between atoms: _329  and  _332
REMARK  139  A    between atoms: _332  and  _333
REMARK  140  A    between atoms: _336  and  _338
REMARK  141  A    between atoms: _338  and  _339
REMARK  142  A    between atoms: _338  and  _341
REMARK  143  A    between atoms: _341  and  _342
REMARK  144  A    between atoms: _344  and  _346
REMARK  145  A    between atoms: _346  and  _347
REMARK  146  A    between atoms: _346  and  _349
REMARK  147  A    between atoms: _349  and  _350
REMARK  148  A    between atoms: _353  and  _355
REMARK  149  A    between atoms: _355  and  _356
REMARK  150  A    between atoms: _358  and  _360
REMARK  151  A    between atoms: _360  and  _361
REMARK  152  A    between atoms: _360  and  _363
REMARK  153  A    between atoms: _363  and  _364
REMARK  154  A    between atoms: _367  and  _369
REMARK  155  A    between atoms: _369  and  _370
REMARK  156  A    between atoms: _369  and  _372
REMARK  157  A    between atoms: _375  and  _376
REMARK  158  A    between atoms: _381  and  _383
REMARK  159  A    between atoms: _383  and  _384
REMARK  160  A    between atoms: _383  and  _386
REMARK  161  A    between atoms: _386  and  _387
REMARK  162  A    between atoms: _390  and  _392
REMARK  163  A    between atoms: _392  and  _393
REMARK  164  A    between atoms: _392  and  _395
REMARK  165  A    between atoms: _398  and  _400
REMARK  166  A    between atoms: _400  and  _401
REMARK  167  A    between atoms: _400  and  _403
REMARK  168  A    between atoms: _406  and  _408
REMARK  169  A    between atoms: _408  and  _409
REMARK  170  A    between atoms: _408  and  _411
REMARK  171  A    between atoms: _411  and  _412
REMARK  172  A    between atoms: _416  and  _417
REMARK  173  A    between atoms: _422  and  _424
REMARK  174  A    between atoms: _424  and  _425
REMARK  175  A    between atoms: _424  and  _427
REMARK  176  A    between atoms: _427  and  _428
REMARK  177  A    between atoms: _433  and  _434
REMARK  178  A    between atoms: _436  and  _438
REMARK  179  A    between atoms: _438  and  _439
REMARK  180  A    between atoms: _438  and  _441
REMARK  181  A    between atoms: _441  and  _442
REMARK  182  A    between atoms: _442  and  _443
REMARK  183  A    between atoms: _445  and  _447
REMARK  184  A    between atoms: _447  and  _448
REMARK  185  A    between atoms: _447  and  _450
REMARK  186  A    between atoms: _450  and  _451
REMARK  187  A    between atoms: _451  and  _452
REMARK  188  A    between atoms: _452  and  _453
REMARK  189  A    between atoms: _453  and  _454
REMARK  190  A    between atoms: _458  and  _460
REMARK  191  A    between atoms: _460  and  _461
REMARK  192  A    between atoms: _460  and  _463
REMARK  193  A    between atoms: _463  and  _464
REMARK  194  A    between atoms: _469  and  _471
REMARK  195  A    between atoms: _471  and  _472
REMARK  196  A    between atoms: _474  and  _476
REMARK  197  A    between atoms: _476  and  _477
REMARK  198  A    between atoms: _476  and  _479
REMARK  199  A    between atoms: _479  and  _480
REMARK  200  A    between atoms: _483  and  _485
REMARK  201  A    between atoms: _485  and  _486
REMARK  202  A    between atoms: _485  and  _488
REMARK  203  A    between atoms: _488  and  _489
REMARK  204  A    between atoms: _494  and  _496
REMARK  205  A    between atoms: _496  and  _497
REMARK  206  A    between atoms: _496  and  _499
REMARK  207  A    between atoms: _499  and  _500
REMARK  208  A    between atoms: _503  and  _505
REMARK  209  A    between atoms: _505  and  _506
REMARK  210  A    between atoms: _505  and  _508
REMARK  211  A    between atoms: _508  and  _509
REMARK  212  A    between atoms: _515  and  _517
REMARK  213  A    between atoms: _517  and  _518
REMARK  214  A    between atoms: _517  and  _520
REMARK  215  A    between atoms: _523  and  _525
REMARK  216  A    between atoms: _525  and  _526
REMARK  217  A    between atoms: _525  and  _528
REMARK  218  A    between atoms: _528  and  _529
REMARK  219  A    between atoms: _534  and  _536
REMARK  220  A    between atoms: _536  and  _537
REMARK  221  A    between atoms: _536  and  _539
REMARK  222  A    between atoms: _539  and  _540
REMARK  223  A    between atoms: _540  and  _541
REMARK  224  A    between atoms: _541  and  _542
REMARK  225  A    between atoms: _551  and  _553
REMARK  226  A    between atoms: _553  and  _554
REMARK  227  A    between atoms: _553  and  _556
REMARK  228  A    between atoms: _556  and  _557
REMARK  229  A    between atoms: _562  and  _564
REMARK  230  A    between atoms: _564  and  _565
REMARK  231  A    between atoms: _564  and  _567
REMARK  232  A    between atoms: _569  and  _571
REMARK  233  A    between atoms: _571  and  _572
REMARK  234  A    between atoms: _571  and  _574
REMARK  235  A    between atoms: _574  and  _575
REMARK  236  A    between atoms: _575  and  _576
REMARK  237  A    between atoms: _578  and  _580
REMARK  238  A    between atoms: _580  and  _581
REMARK  239  A    between atoms: _580  and  _583
REMARK  240  A    between atoms: _583  and  _584
REMARK  241  A    between atoms: _587  and  _589
REMARK  242  A    between atoms: _589  and  _590
REMARK  243  A    between atoms: _589  and  _592
REMARK  244  A    between atoms: _592  and  _593
REMARK  245  A    between atoms: _593  and  _594
REMARK  246  A    between atoms: _594  and  _595
REMARK  247  A    between atoms: _595  and  _596
REMARK  248  A    between atoms: _600  and  _602
REMARK  249  A    between atoms: _602  and  _603
REMARK  250  A    between atoms: _602  and  _605
REMARK  251  A    between atoms: _608  and  _610
REMARK  252  A    between atoms: _610  and  _611
REMARK  253  A    between atoms: _614  and  _616
REMARK  254  A    between atoms: _616  and  _617
REMARK  255  A    between atoms: _616  and  _619
REMARK  256  A    between atoms: _619  and  _620
REMARK  257  A    between atoms: _623  and  _625
REMARK  258  A    between atoms: _625  and  _626
REMARK  259  A    between atoms: _625  and  _628
REMARK  260  A    between atoms: _628  and  _629
REMARK  261  A    between atoms: _635  and  _637
REMARK  262  A    between atoms: _637  and  _638
REMARK                            x       y       z     vdW  Elec       q    Type
REMARK                         _______ _______ _______ _____ _____    ______ ____
ROOT
ATOM      1  CA  VAL A   1      36.950  -3.868  10.584  0.00  0.00    +0.133 C 
ENDROOT
BRANCH   1   2
ATOM      2  CB  VAL A   1      35.759  -3.327   9.735  0.00  0.00    +0.023 C 
ATOM      3  CG2 VAL A   1      34.466  -3.317  10.545  0.00  0.00    +0.002 C 
ATOM      4  CG1 VAL A   1      36.057  -1.928   9.202  0.00  0.00    +0.002 C 
ENDBRANCH   1   2
BRANCH   1   5
ATOM      5  N   VAL A   1      38.230  -3.658   9.909  0.00  0.00    -0.239 NA
ATOM      6  H   VAL A   1      38.295  -3.867   8.892  0.00  0.00    +0.142 HD
ENDBRANCH   1   5
BRANCH   1   7
ATOM      7  C   VAL A   1      36.723  -5.356  10.888  0.00  0.00    +0.224 C 
ATOM      8  O   VAL A   1      35.967  -5.703  11.798  0.00  0.00    -0.287 OA
ENDBRANCH   1   7
TORSDOF 3
REMARK  Name = ../refined-set-2016/3u6i/3u6i_pocket.pdb
REMARK  262 active torsions:
REMARK  status: ('A' for Active; 'I' for Inactive)
REMARK    1  A    between atoms: _1  and  _3
REMARK    2  A    between atoms: _3  and  _4
REMARK    3  A    between atoms: _3  and  _6
REMARK    4  A    between atoms: _9  and  _11
REMARK    5  A    between atoms: _11  and  _12
REMARK    6  A    between atoms: _11  and  _14
REMARK    7  A    between atoms: _17  and  _19
REMARK    8  A    between atoms: _19  and  _20
REMARK    9  A    between atoms: _19  and  _22
REMARK   10  A    between atoms: _22  and  _23
REMARK   11  A    between atoms: _26  and  _28
REMARK   12  A    between atoms: _28  and  _29
REMARK   13  A    between atoms: _31  and  _33
REMARK   14  A    between atoms: _33  and  _34
REMARK   15  A    between atoms: _33  and  _36
REMARK   16  A    between atoms: _36  and  _37
REMARK   17  A    between atoms: _37  and  _38
REMARK   18  A    between atoms: _38  and  _39
REMARK   19  A    between atoms: _48  and  _50
REMARK   20  A    between atoms: _50  and  _51
REMARK   21  A    between atoms: _53  and  _55
REMARK   22  A    between atoms: _55  and  _56
REMARK   23  A    between atoms: _55  and  _58
REMARK   24  A    between atoms: _58  and  _59
REMARK   25  A    between atoms: _64  and  _66
REMARK   26  A    between atoms: _66  and  _67
REMARK   27  A    between atoms: _66  and  _69
REMARK   28  A    between atoms: _69  and  _70
REMARK   29  A    between atoms: _76  and  _78
REMARK   30  A    between atoms: _78  and  _79
REMARK   31  A    between atoms: _81  and  _83
REMARK   32  A    between atoms: _83  and  _84
REMARK   33  A    between atoms: _83  and  _86
REMARK   34  A    between atoms: _88  and  _90
REMARK   35  A    between atoms: _90  and  _91
REMARK   36  A    between atoms: _90  and  _93
REMARK   37  A    between atoms: _96  and  _98
REMARK   38  A    between atoms: _98  and  _99
REMARK   39  A    between atoms: _98  and  _101
REMARK   40  A    between atoms: _101  and  _102
REMARK   41  A    between atoms: _107  and  _108
REMARK   42  A    between atoms: _110  and  _112
REMARK   43  A    between atoms: _112  and  _113
REMARK   44  A    between atoms: _112  and  _115
REMARK   45  A    between atoms: _115  and  _116
REMARK   46  A    between atoms: _121  and  _123
REMARK   47  A    between atoms: _123  and  _124
REMARK   48  A    between atoms: _123  and  _126
REMARK   49  A    between atoms: _126  and  _127
REMARK   50  A    between atoms: _132  and  _134
REMARK   51  A    between atoms: _134  and  _135
REMARK   52  A    between atoms: _134  and  _137
REMARK   53  A    between atoms: _139  and  _141
REMARK   54  A    between atoms: _141  and  _142
REMARK   55  A    between atoms: _145  and  _147
REMARK   56  A    between atoms: _147  and  _148
REMARK   57  A    between atoms: _147  and  _150
REMARK   58  A    between atoms: _153  and  _155
REMARK   59  A    between atoms: _155  and  _156
REMARK   60  A    between atoms: _155  and  _158
REMARK   61  A    between atoms: _158  and  _159
REMARK   62  A    between atoms: _159  and  _160
REMARK   63  A    between atoms: _160  and  _161
REMARK   64  A    between atoms: _161  and  _162
REMARK   65  A    between atoms: _166  and  _168
REMARK   66  A    between atoms: _168  and  _169
REMARK   67  A    between atoms: _168  and  _171
REMARK   68  A    between atoms: _171  and  _172
REMARK   69  A    between atoms: _174  and  _176
REMARK   70  A    between atoms: _176  and  _177
REMARK   71  A    between atoms: _176  and  _179
REMARK   72  A    between atoms: _179  and  _180
REMARK   73  A    between atoms: _183  and  _185
REMARK   74  A    between atoms: _185  and  _186
REMARK   75  A    between atoms: _185  and  _188
REMARK   76  A    between atoms: _188  and  _189
REMARK   77  A    between atoms: _192  and  _194
REMARK   78  A    between atoms: _194  and  _195
REMARK   79  A    between atoms: _194  and  _197
REMARK   80  A    between atoms: _197  and  _198
REMARK   81  A    between atoms: _198  and  _199
REMARK   82  A    between atoms: _202  and  _204
REMARK   83  A    between atoms: _204  and  _205
REMARK   84  A    between atoms: _204  and  _207
REMARK   85  A    between atoms: _210  and  _212
REMARK   86  A    between atoms: _212  and  _213
REMARK   87  A    between atoms: _212  and  _215
REMARK   88  A    between atoms: _215  and  _216
REMARK   89  A    between atoms: _216  and  _217
REMARK   90  A    between atoms: _222  and  _224
REMARK   91  A    between atoms: _224  and  _225
REMARK   92  A    between atoms: _224  and  _227
REMARK   93  A    between atoms: _227  and  _228
REMARK   94  A    between atoms: _234  and  _236
REMARK   95  A    between atoms: _236  and  _237
REMARK   96  A    between atoms: _236  and  _239
REMARK   97  A    between atoms: _239  and  _240
REMARK   98  A    between atoms: _243  and  _245
REMARK   99  A    between atoms: _245  and  _246
REMARK  100  A    between atoms: _245  and  _248
REMARK  101  A    between atoms: _248  and  _249
REMARK  102  A    between atoms: _252  and  _254
REMARK  103  A    between atoms: _254  and  _255
REMARK  104  A    between atoms: _254  and  _257
REMARK  105  A    between atoms: _257  and  _258
REMARK  106  A    between atoms: _258  and  _259
REMARK  107  A    between atoms: _262  and  _264
REMARK  108  A    between atoms: _264  and  _265
REMARK  109  A    between atoms: _267  and  _269
REMARK  110  A    between atoms: _269  and  _270
REMARK  111  A    between atoms: _269  and  _272
REMARK  112  A    between atoms: _272  and  _273
REMARK  113  A    between atoms: _276  and  _278
REMARK  114  A    between atoms: _278  and  _279
REMARK  115  A    between atoms: _278  and  _281
REMARK  116  A    between atoms: _281  and  _282
REMARK  117  A    between atoms: _285  and  _287
REMARK  118  A    between atoms: _287  and  _288
REMARK  119  A    between atoms: _287  and  _290
REMARK  120  A    between atoms: _290  and  _291
REMARK  121  A    between atoms: _291  and  _292
REMARK  122  A    between atoms: _294  and  _296
REMARK  123  A    between atoms: _296  and  _297
REMARK  124  A    between atoms: _296  and  _299
REMARK  125  A    between atoms: _299  and  _300
REMARK  126  A    between atoms: _300  and  _301
REMARK  127  A    between atoms: _301  and  _302
REMARK  128  A    between atoms: _302  and  _303
REMARK  129  A    between atoms: _307  and  _309
REMARK  130  A    between atoms: _309  and  _310
REMARK  131  A    between atoms: _309  and  _312
REMARK  132  A    between atoms: _312  and  _313
REMARK  133  A    between atoms: _319  and  _321
REMARK  134  A    between atoms: _321  and  _322
REMARK  135  A    between atoms: _321  and  _324
REMARK  136  A    between atoms: _327  and  _329
REMARK  137  A    between atoms: _329  and  _330
REMARK  138  A    between atoms: _329  and  _332
REMARK  139  A    between atoms: _332  and  _333
REMARK  140  A    between atoms: _336  and  _338
REMARK  141  A    between atoms: _338  and  _339
REMARK  142  A    between atoms: _338  and  _341
REMARK  143  A    between atoms: _341  and  _342
REMARK  144  A    between atoms: _344  and  _346
REMARK  145  A    between atoms: _346  and  _347
REMARK  146  A    between atoms: _346  and  _349
REMARK  147  A    between atoms: _349  and  _350
REMARK  148  A    between atoms: _353  and  _355
REMARK  149  A    between atoms: _355  and  _356
REMARK  150  A    between atoms: _358  and  _360
REMARK  151  A    between atoms: _360  and  _361
REMARK  152  A    between atoms: _360  and  _363
REMARK  153  A    between atoms: _363  and  _364
REMARK  154  A    between atoms: _367  and  _369
REMARK  155  A    between atoms: _369  and  _370
REMARK  156  A    between atoms: _369  and  _372
REMARK  157  A    between atoms: _375  and  _376
REMARK  158  A    between atoms: _381  and  _383
REMARK  159  A    between atoms: _383  and  _384
REMARK  160  A    between atoms: _383  and  _386
REMARK  161  A    between atoms: _386  and  _387
REMARK  162  A    between atoms: _390  and  _392
REMARK  163  A    between atoms: _392  and  _393
REMARK  164  A    between atoms: _392  and  _395
REMARK  165  A    between atoms: _398  and  _400
REMARK  166  A    between atoms: _400  and  _401
REMARK  167  A    between atoms: _400  and  _403
REMARK  168  A    between atoms: _406  and  _408
REMARK  169  A    between atoms: _408  and  _409
REMARK  170  A    between atoms: _408  and  _411
REMARK  171  A    between atoms: _411  and  _412
REMARK  172  A    between atoms: _416  and  _417
REMARK  173  A    between atoms: _422  and  _424
REMARK  174  A    between atoms: _424  and  _425
REMARK  175  A    between atoms: _424  and  _427
REMARK  176  A    between atoms: _427  and  _428
REMARK  177  A    between atoms: _433  and  _434
REMARK  178  A    between atoms: _436  and  _438
REMARK  179  A    between atoms: _438  and  _439
REMARK  180  A    between atoms: _438  and  _441
REMARK  181  A    between atoms: _441  and  _442
REMARK  182  A    between atoms: _442  and  _443
REMARK  183  A    between atoms: _445  and  _447
REMARK  184  A    between atoms: _447  and  _448
REMARK  185  A    between atoms: _447  and  _450
REMARK  186  A    between atoms: _450  and  _451
REMARK  187  A    between atoms: _451  and  _452
REMARK  188  A    between atoms: _452  and  _453
REMARK  189  A    between atoms: _453  and  _454
REMARK  190  A    between atoms: _458  and  _460
REMARK  191  A    between atoms: _460  and  _461
REMARK  192  A    between atoms: _460  and  _463
REMARK  193  A    between atoms: _463  and  _464
REMARK  194  A    between atoms: _469  and  _471
REMARK  195  A    between atoms: _471  and  _472
REMARK  196  A    between atoms: _474  and  _476
REMARK  197  A    between atoms: _476  and  _477
REMARK  198  A    between atoms: _476  and  _479
REMARK  199  A    between atoms: _479  and  _480
REMARK  200  A    between atoms: _483  and  _485
REMARK  201  A    between atoms: _485  and  _486
REMARK  202  A    between atoms: _485  and  _488
REMARK  203  A    between atoms: _488  and  _489
REMARK  204  A    between atoms: _494  and  _496
REMARK  205  A    between atoms: _496  and  _497
REMARK  206  A    between atoms: _496  and  _499
REMARK  207  A    between atoms: _499  and  _500
REMARK  208  A    between atoms: _503  and  _505
REMARK  209  A    between atoms: _505  and  _506
REMARK  210  A    between atoms: _505  and  _508
REMARK  211  A    between atoms: _508  and  _509
REMARK  212  A    between atoms: _515  and  _517
REMARK  213  A    between atoms: _517  and  _518
REMARK  214  A    between atoms: _517  and  _520
REMARK  215  A    between atoms: _523  and  _525
REMARK  216  A    between atoms: _525  and  _526
REMARK  217  A    between atoms: _525  and  _528
REMARK  218  A    between atoms: _528  and  _529
REMARK  219  A    between atoms: _534  and  _536
REMARK  220  A    between atoms: _536  and  _537
REMARK  221  A    between atoms: _536  and  _539
REMARK  222  A    between atoms: _539  and  _540
REMARK  223  A    between atoms: _540  and  _541
REMARK  224  A    between atoms: _541  and  _542
REMARK  225  A    between atoms: _551  and  _553
REMARK  226  A    between atoms: _553  and  _554
REMARK  227  A    between atoms: _553  and  _556
REMARK  228  A    between atoms: _556  and  _557
REMARK  229  A    between atoms: _562  and  _564
REMARK  230  A    between atoms: _564  and  _565
REMARK  231  A    between atoms: _564  and  _567
REMARK  232  A    between atoms: _569  and  _571
REMARK  233  A    between atoms: _571  and  _572
REMARK  234  A    between atoms: _571  and  _574
REMARK  235  A    between atoms: _574  and  _575
REMARK  236  A    between atoms: _575  and  _576
REMARK  237  A    between atoms: _578  and  _580
REMARK  238  A    between atoms: _580  and  _581
REMARK  239  A    between atoms: _580  and  _583
REMARK  240  A    between atoms: _583  and  _584
REMARK  241  A    between atoms: _587  and  _589
REMARK  242  A    between atoms: _589  and  _590
REMARK  243  A    between atoms: _589  and  _592
REMARK  244  A    between atoms: _592  and  _593
REMARK  245  A    between atoms: _593  and  _594
REMARK  246  A    between atoms: _594  and  _595
REMARK  247  A    between atoms: _595  and  _596
REMARK  248  A    between atoms: _600  and  _602
REMARK  249  A    between atoms: _602  and  _603
REMARK  250  A    between atoms: _602  and  _605
REMARK  251  A    between atoms: _608  and  _610
REMARK  252  A    between atoms: _610  and  _611
REMARK  253  A    between atoms: _614  and  _616
REMARK  254  A    between atoms: _616  and  _617
REMARK  255  A    between atoms: _616  and  _619
REMARK  256  A    between atoms: _619  and  _620
REMARK  257  A    between atoms: _623  and  _625
REMARK  258  A    between atoms: _625  and  _626
REMARK  259  A    between atoms: _625  and  _628
REMARK  260  A    between atoms: _628  and  _629
REMARK  261  A    between atoms: _635  and  _637
REMARK  262  A    between atoms: _637  and  _638
REMARK                            x       y       z     vdW  Elec       q    Type
REMARK                         _______ _______ _______ _____ _____    ______ ____
ROOT
ATOM      1  C   HIS A   6      15.054  -5.757  17.240  0.00  0.00    +0.241 C 
ATOM      2  N   PHE A   7      16.082  -6.547  17.534  0.00  0.00    -0.297 N 
ATOM      3  H   PHE A   7      15.926  -7.355  18.170  0.00  0.00    +0.150 HD
ATOM      4  O   HIS A   6      15.180  -4.661  16.685  0.00  0.00    -0.273 OA
ENDROOT
BRANCH   2   5
ATOM      5  CA  PHE A   7      17.420  -6.324  16.998  0.00  0.00    +0.153 C 
BRANCH   5   6
ATOM      6  C   PHE A   7      17.858  -7.528  16.162  0.00  0.00    +0.241 C 
ATOM      7  N   GLY A   8      16.916  -8.434  15.910  0.00  0.00    -0.295 N 
ATOM      8  H   GLY A   8      15.970  -8.300  16.321  0.00  0.00    +0.150 HD
ATOM      9  O   PHE A   7      19.013  -7.627  15.756  0.00  0.00    -0.273 OA
BRANCH   7  10
ATOM     10  CA  GLY A   8      17.161  -9.608  15.079  0.00  0.00    +0.176 C 
BRANCH  10  11
ATOM     11  C   GLY A   8      17.738 -10.774  15.855  0.00  0.00    +0.243 C 
ATOM     12  O   GLY A   8      17.474 -10.934  17.050  0.00  0.00    -0.273 OA
ATOM     13  N   CYS A   9      18.526 -11.590  15.161  0.00  0.00    -0.296 N 
ATOM     14  H   CYS A   9      18.689 -11.389  14.154  0.00  0.00    +0.150 HD
BRANCH  13  15
ATOM     15  CA  CYS A   9      19.172 -12.757  15.755  0.00  0.00    +0.160 C 
BRANCH  15  16
ATOM     16  C   CYS A   9      20.503 -12.343  16.380  0.00  0.00    +0.242 C 
ATOM     17  N   VAL A  10      20.532 -12.274  17.712  0.00  0.00    -0.297 N 
ATOM     18  H   VAL A  10      19.692 -12.575  18.247  0.00  0.00    +0.150 HD
ATOM     19  O   CYS A   9      21.475 -12.085  15.667  0.00  0.00    -0.273 OA
BRANCH  17  20
ATOM     20  CA  VAL A  10      21.701 -11.791  18.450  0.00  0.00    +0.149 C 
BRANCH  20  21
ATOM     21  C   VAL A  10      22.187 -12.828  19.466  0.00  0.00    +0.241 C 
ATOM     22  O   VAL A  10      21.397 -13.384  20.229  0.00  0.00    -0.273 OA
ATOM     23  N   TYR A  11      23.493 -13.076  19.465  0.00  0.00    -0.297 N 
ATOM     24  H   TYR A  11      24.105 -12.544  18.814  0.00  0.00    +0.150 HD
BRANCH  23  25
ATOM     25  CA  TYR A  11      24.097 -14.068  20.345  0.00  0.00    +0.153 C 
BRANCH  25  26
ATOM     26  C   TYR A  11      25.029 -13.404  21.351  0.00  0.00    +0.241 C 
ATOM     27  N   HIS A  12      25.248 -14.082  22.474  0.00  0.00    -0.298 N 
ATOM     28  H   HIS A  12      24.660 -14.913  22.689  0.00  0.00    +0.150 HD
ATOM     29  O   TYR A  11      25.529 -12.298  21.118  0.00  0.00    -0.273 OA
BRANCH  27  30
ATOM     30  CA  HIS A  12      26.290 -13.689  23.408  0.00  0.00    +0.143 C 
BRANCH  30  31
ATOM     31  C   HIS A  12      27.643 -14.017  22.793  0.00  0.00    +0.227 C 
ATOM     32  O   HIS A  12      27.819 -15.074  22.188  0.00  0.00    -0.286 OA
ENDBRANCH  30  31
BRANCH  30  33
ATOM     33  CB  HIS A  12      26.127 -14.416  24.746  0.00  0.00    +0.075 C 
BRANCH  33  34
ATOM     34  CG  HIS A  12      25.046 -13.849  25.614  0.00  0.00    +0.082 A 
ATOM     35  ND1 HIS A  12      25.263 -12.804  26.486  0.00  0.00    -0.227 NA
ATOM     36  CE1 HIS A  12      24.139 -12.522  27.120  0.00  0.00    +0.199 A 
ATOM     37  NE2 HIS A  12      23.201 -13.351  26.695  0.00  0.00    -0.221 NA
ATOM     38  CD2 HIS A  12      23.741 -14.189  25.750  0.00  0.00    +0.115 A 
ENDBRANCH  33  34
ENDBRANCH  30  33
ENDBRANCH  27  30
ENDBRANCH  25  26
BRANCH  25  39
ATOM     39  CB  TYR A  11      24.875 -15.112  19.530  0.00  0.00    +0.055 C 
BRANCH  39  40
ATOM     40  CG  TYR A  11      24.046 -15.873  18.515  0.00  0.00    -0.020 A 
ATOM     41  CD2 TYR A  11      23.157 -16.869  18.916  0.00  0.00    -0.001 A 
ATOM     42  CE2 TYR A  11      22.398 -17.573  17.985  0.00  0.00    +0.036 A 
ATOM     43  CZ  TYR A  11      22.522 -17.280  16.635  0.00  0.00    +0.134 A 
ATOM     44  CE1 TYR A  11      23.397 -16.293  16.210  0.00  0.00    +0.036 A 
ATOM     45  CD1 TYR A  11      24.153 -15.596  17.153  0.00  0.00    -0.001 A 
BRANCH  43  46
ATOM     46  OH  TYR A  11      21.770 -17.974  15.712  0.00  0.00    -0.506 OA
ATOM     47  HH  TYR A  11      20.808 -17.837  15.902  0.00  0.00    +0.292 HD
ENDBRANCH  43  46
ENDBRANCH  39  40
ENDBRANCH  25  39
ENDBRANCH  23  25
ENDBRANCH  20  21
BRANCH  20  48
ATOM     48  CB  VAL A  10      21.425 -10.445  19.182  0.00  0.00    +0.027 C 
ATOM     49  CG2 VAL A  10      22.727  -9.823  19.699  0.00  0.00    +0.002 C 
ATOM     50  CG1 VAL A  10      20.678  -9.454  18.277  0.00  0.00    +0.002 C 
ENDBRANCH  20  48
ENDBRANCH  17  20
ENDBRANCH  15  16
BRANCH  15  51
ATOM     51  CB  CYS A   9      19.377 -13.837  14.687  0.00  0.00    +0.098 C 
ATOM     52  SG  CYS A   9      20.040 -15.400  15.294  0.00  0.00    -0.080 S 
ENDBRANCH  15  51
ENDBRANCH  13  15
ENDBRANCH  10  11
ENDBRANCH   7  10
ENDBRANCH   5   6
BRANCH   5  53
ATOM     53  CB  PHE A   7      18.419  -6.037  18.121  0.00  0.00    +0.055 C 
BRANCH  53  54
ATOM     54  CG  PHE A   7      18.154  -4.752  18.852  0.00  0.00    -0.020 A 
ATOM     55  CD2 PHE A   7      17.707  -4.770  20.170  0.00  0.00    -0.004 A 
ATOM     56  CE2 PHE A   7      17.455  -3.578  20.853  0.00  0.00    -0.000 A 
ATOM     57  CZ  PHE A   7      17.645  -2.357  20.211  0.00  0.00    -0.000 A 
ATOM     58  CE1 PHE A   7      18.086  -2.326  18.892  0.00  0.00    -0.000 A 
ATOM     59  CD1 PHE A   7      18.337  -3.522  18.219  0.00  0.00    -0.004 A 
ENDBRANCH  53  54
ENDBRANCH   5  53
ENDBRANCH   2   5
BRANCH   1  60
ATOM     60  CA  HIS A   6      13.675  -6.283  17.641  0.00  0.00    +0.155 C 
BRANCH  60  62
ATOM     61  C   GLY A   5      13.718  -8.738  17.530  0.00  0.00    +0.243 C 
ATOM     62  N   HIS A   6      13.758  -7.613  18.249  0.00  0.00    -0.297 N 
ATOM     63  H   HIS A   6      13.852  -7.684  19.282  0.00  0.00    +0.150 HD
ATOM     64  O   GLY A   5      13.510  -8.760  16.309  0.00  0.00    -0.273 OA
BRANCH  61  65
ATOM     65  CA  GLY A   5      13.945 -10.028  18.303  0.00  0.00    +0.176 C 
BRANCH  65  68
ATOM     66  C   ARG A   4      13.599 -10.796  20.608  0.00  0.00    +0.241 C 
ATOM     67  O   ARG A   4      13.400 -11.963  20.264  0.00  0.00    -0.273 OA
ATOM     68  N   GLY A   5      13.910  -9.825  19.751  0.00  0.00    -0.295 N 
ATOM     69  H   GLY A   5      14.138  -8.883  20.127  0.00  0.00    +0.150 HD
BRANCH  66  70
ATOM     70  CA  ARG A   4      13.520 -10.395  22.084  0.00  0.00    +0.149 C 
BRANCH  70  73
ATOM     71  C   GLY A   3      15.800 -10.693  22.964  0.00  0.00    +0.243 C 
ATOM     72  O   GLY A   3      15.737 -11.925  22.958  0.00  0.00    -0.273 OA
ATOM     73  N   ARG A   4      14.812  -9.896  22.559  0.00  0.00    -0.297 N 
ATOM     74  H   ARG A   4      14.966  -8.868  22.581  0.00  0.00    +0.150 HD
BRANCH  71  75
ATOM     75  CA  GLY A   3      17.048  -9.983  23.443  0.00  0.00    +0.176 C 
BRANCH  75  77
ATOM     76  C   ILE A   2      19.018 -11.327  22.875  0.00  0.00    +0.241 C 
ATOM     77  N   GLY A   3      18.175 -10.849  23.787  0.00  0.00    -0.295 N 
ATOM     78  H   GLY A   3      18.324 -11.102  24.785  0.00  0.00    +0.150 HD
ATOM     79  O   ILE A   2      18.805 -11.277  21.657  0.00  0.00    -0.273 OA
BRANCH  76  80
ATOM     80  CA  ILE A   2      20.295 -11.965  23.421  0.00  0.00    +0.148 C 
BRANCH  80  83
ATOM     81  C   VAL A   1      20.410 -14.420  23.464  0.00  0.00    +0.238 C 
ATOM     82  O   VAL A   1      20.185 -14.482  24.673  0.00  0.00    -0.274 OA
ATOM     83  N   ILE A   2      20.524 -13.271  22.801  0.00  0.00    -0.297 N 
ATOM     84  H   ILE A   2      20.788 -13.303  21.796  0.00  0.00    +0.150 HD
BRANCH  81  85
ATOM     85  CA  VAL A   1      20.593 -15.695  22.633  0.00  0.00    +0.145 C 
BRANCH  85  86
ATOM     86  CB  VAL A   1      19.233 -16.189  22.045  0.00  0.00    +0.025 C 
ATOM     87  CG2 VAL A   1      18.389 -15.036  21.514  0.00  0.00    +0.002 C 
ATOM     88  CG1 VAL A   1      19.471 -17.223  20.946  0.00  0.00    +0.002 C 
ENDBRANCH  85  86
BRANCH  85  89
ATOM     89  N   VAL A   1      21.243 -16.764  23.394  0.00  0.00    -0.238 NA
ATOM     90  H   VAL A   1      20.659 -17.357  24.018  0.00  0.00    +0.142 HD
ENDBRANCH  85  89
ENDBRANCH  81  85
ENDBRANCH  80  83
BRANCH  80  91
ATOM     91  CB  ILE A   2      21.484 -10.991  23.169  0.00  0.00    +0.027 C 
ATOM     92  CG2 ILE A   2      21.089  -9.553  23.484  0.00  0.00    +0.002 C 
BRANCH  91  93
ATOM     93  CG1 ILE A   2      22.707 -11.392  23.996  0.00  0.00    +0.002 C 
ATOM     94  CD1 ILE A   2      23.964 -10.612  23.666  0.00  0.00    +0.000 C 
ENDBRANCH  91  93
ENDBRANCH  80  91
ENDBRANCH  76  80
ENDBRANCH  75  77
ENDBRANCH  71  75
ENDBRANCH  70  73
BRANCH  70  95
ATOM     95  CB  ARG A   4      12.426  -9.335  22.315  0.00  0.00    +0.033 C 
BRANCH  95  96
ATOM     96  CG  ARG A   4      11.006  -9.747  21.915  0.00  0.00    +0.045 C 
BRANCH  96  97
ATOM     97  CD  ARG A   4      10.000  -8.647  22.266  0.00  0.00    +0.174 C 
BRANCH  97  98
ATOM     98  NE  ARG A   4       8.714  -8.823  21.588  0.00  0.00    -0.265 N 
ATOM     99  CZ  ARG A   4       7.755  -7.898  21.518  0.00  0.00    +0.342 C 
ATOM    100  NH2 ARG A   4       7.917  -6.706  22.084  0.00  0.00    -0.292 N 
ATOM    101 HH21 ARG A   4       8.799  -6.486  22.589  0.00  0.00    +0.255 HD
ATOM    102 HH22 ARG A   4       7.162  -5.994  22.022  0.00  0.00    +0.255 HD
ATOM    103  NH1 ARG A   4       6.624  -8.164  20.872  0.00  0.00    -0.292 N 
ATOM    104 HH11 ARG A   4       5.875  -7.444  20.816  0.00  0.00    +0.255 HD
ATOM    105 HH12 ARG A   4       6.488  -9.092  20.422  0.00  0.00    +0.255 HD
ATOM    106  HE  ARG A   4       8.535  -9.738  21.126  0.00  0.00    +0.259 HD
ENDBRANCH  97  98
ENDBRANCH  96  97
ENDBRANCH  95  96
ENDBRANCH  70  95
ENDBRANCH  66  70
ENDBRANCH  65  68
ENDBRANCH  61  65
ENDBRANCH  60  62
BRANCH  60 107
ATOM    107  CB  HIS A   6      12.957  -5.300  18.570  0.00  0.00    +0.076 C 
BRANCH 107 108
ATOM    108  CG  HIS A   6      11.493  -5.577  18.722  0.00  0.00    +0.082 A 
ATOM    109  CD2 HIS A   6      10.753  -5.893  19.812  0.00  0.00    +0.115 A 
ATOM    110  NE2 HIS A   6       9.454  -6.044  19.389  0.00  0.00    -0.221 NA
ATOM    111  CE1 HIS A   6       9.398  -5.829  18.087  0.00  0.00    +0.199 A 
ATOM    112  ND1 HIS A   6      10.616  -5.544  17.659  0.00  0.00    -0.227 NA
ENDBRANCH 107 108
ENDBRANCH  60 107
ENDBRANCH   1  60
TORSDOF 42
REMARK  Name = ../refined-set-2016/3u6i/3u6i_pocket.pdb
REMARK  262 active torsions:
REMARK  status: ('A' for Active; 'I' for Inactive)
REMARK    1  A    between atoms: _1  and  _3
REMARK    2  A    between atoms: _3  and  _4
REMARK    3  A    between atoms: _3  and  _6
REMARK    4  A    between atoms: _9  and  _11
REMARK    5  A    between atoms: _11  and  _12
REMARK    6  A    between atoms: _11  and  _14
REMARK    7  A    between atoms: _17  and  _19
REMARK    8  A    between atoms: _19  and  _20
REMARK    9  A    between atoms: _19  and  _22
REMARK   10  A    between atoms: _22  and  _23
REMARK   11  A    between atoms: _26  and  _28
REMARK   12  A    between atoms: _28  and  _29
REMARK   13  A    between atoms: _31  and  _33
REMARK   14  A    between atoms: _33  and  _34
REMARK   15  A    between atoms: _33  and  _36
REMARK   16  A    between atoms: _36  and  _37
REMARK   17  A    between atoms: _37  and  _38
REMARK   18  A    between atoms: _38  and  _39
REMARK   19  A    between atoms: _48  and  _50
REMARK   20  A    between atoms: _50  and  _51
REMARK   21  A    between atoms: _53  and  _55
REMARK   22  A    between atoms: _55  and  _56
REMARK   23  A    between atoms: _55  and  _58
REMARK   24  A    between atoms: _58  and  _59
REMARK   25  A    between atoms: _64  and  _66
REMARK   26  A    between atoms: _66  and  _67
REMARK   27  A    between atoms: _66  and  _69
REMARK   28  A    between atoms: _69  and  _70
REMARK   29  A    between atoms: _76  and  _78
REMARK   30  A    between atoms: _78  and  _79
REMARK   31  A    between atoms: _81  and  _83
REMARK   32  A    between atoms: _83  and  _84
REMARK   33  A    between atoms: _83  and  _86
REMARK   34  A    between atoms: _88  and  _90
REMARK   35  A    between atoms: _90  and  _91
REMARK   36  A    between atoms: _90  and  _93
REMARK   37  A    between atoms: _96  and  _98
REMARK   38  A    between atoms: _98  and  _99
REMARK   39  A    between atoms: _98  and  _101
REMARK   40  A    between atoms: _101  and  _102
REMARK   41  A    between atoms: _107  and  _108
REMARK   42  A    between atoms: _110  and  _112
REMARK   43  A    between atoms: _112  and  _113
REMARK   44  A    between atoms: _112  and  _115
REMARK   45  A    between atoms: _115  and  _116
REMARK   46  A    between atoms: _121  and  _123
REMARK   47  A    between atoms: _123  and  _124
REMARK   48  A    between atoms: _123  and  _126
REMARK   49  A    between atoms: _126  and  _127
REMARK   50  A    between atoms: _132  and  _134
REMARK   51  A    between atoms: _134  and  _135
REMARK   52  A    between atoms: _134  and  _137
REMARK   53  A    between atoms: _139  and  _141
REMARK   54  A    between atoms: _141  and  _142
REMARK   55  A    between atoms: _145  and  _147
REMARK   56  A    between atoms: _147  and  _148
REMARK   57  A    between atoms: _147  and  _150
REMARK   58  A    between atoms: _153  and  _155
REMARK   59  A    between atoms: _155  and  _156
REMARK   60  A    between atoms: _155  and  _158
REMARK   61  A    between atoms: _158  and  _159
REMARK   62  A    between atoms: _159  and  _160
REMARK   63  A    between atoms: _160  and  _161
REMARK   64  A    between atoms: _161  and  _162
REMARK   65  A    between atoms: _166  and  _168
REMARK   66  A    between atoms: _168  and  _169
REMARK   67  A    between atoms: _168  and  _171
REMARK   68  A    between atoms: _171  and  _172
REMARK   69  A    between atoms: _174  and  _176
REMARK   70  A    between atoms: _176  and  _177
REMARK   71  A    between atoms: _176  and  _179
REMARK   72  A    between atoms: _179  and  _180
REMARK   73  A    between atoms: _183  and  _185
REMARK   74  A    between atoms: _185  and  _186
REMARK   75  A    between atoms: _185  and  _188
REMARK   76  A    between atoms: _188  and  _189
REMARK   77  A    between atoms: _192  and  _194
REMARK   78  A    between atoms: _194  and  _195
REMARK   79  A    between atoms: _194  and  _197
REMARK   80  A    between atoms: _197  and  _198
REMARK   81  A    between atoms: _198  and  _199
REMARK   82  A    between atoms: _202  and  _204
REMARK   83  A    between atoms: _204  and  _205
REMARK   84  A    between atoms: _204  and  _207
REMARK   85  A    between atoms: _210  and  _212
REMARK   86  A    between atoms: _212  and  _213
REMARK   87  A    between atoms: _212  and  _215
REMARK   88  A    between atoms: _215  and  _216
REMARK   89  A    between atoms: _216  and  _217
REMARK   90  A    between atoms: _222  and  _224
REMARK   91  A    between atoms: _224  and  _225
REMARK   92  A    between atoms: _224  and  _227
REMARK   93  A    between atoms: _227  and  _228
REMARK   94  A    between atoms: _234  and  _236
REMARK   95  A    between atoms: _236  and  _237
REMARK   96  A    between atoms: _236  and  _239
REMARK   97  A    between atoms: _239  and  _240
REMARK   98  A    between atoms: _243  and  _245
REMARK   99  A    between atoms: _245  and  _246
REMARK  100  A    between atoms: _245  and  _248
REMARK  101  A    between atoms: _248  and  _249
REMARK  102  A    between atoms: _252  and  _254
REMARK  103  A    between atoms: _254  and  _255
REMARK  104  A    between atoms: _254  and  _257
REMARK  105  A    between atoms: _257  and  _258
REMARK  106  A    between atoms: _258  and  _259
REMARK  107  A    between atoms: _262  and  _264
REMARK  108  A    between atoms: _264  and  _265
REMARK  109  A    between atoms: _267  and  _269
REMARK  110  A    between atoms: _269  and  _270
REMARK  111  A    between atoms: _269  and  _272
REMARK  112  A    between atoms: _272  and  _273
REMARK  113  A    between atoms: _276  and  _278
REMARK  114  A    between atoms: _278  and  _279
REMARK  115  A    between atoms: _278  and  _281
REMARK  116  A    between atoms: _281  and  _282
REMARK  117  A    between atoms: _285  and  _287
REMARK  118  A    between atoms: _287  and  _288
REMARK  119  A    between atoms: _287  and  _290
REMARK  120  A    between atoms: _290  and  _291
REMARK  121  A    between atoms: _291  and  _292
REMARK  122  A    between atoms: _294  and  _296
REMARK  123  A    between atoms: _296  and  _297
REMARK  124  A    between atoms: _296  and  _299
REMARK  125  A    between atoms: _299  and  _300
REMARK  126  A    between atoms: _300  and  _301
REMARK  127  A    between atoms: _301  and  _302
REMARK  128  A    between atoms: _302  and  _303
REMARK  129  A    between atoms: _307  and  _309
REMARK  130  A    between atoms: _309  and  _310
REMARK  131  A    between atoms: _309  and  _312
REMARK  132  A    between atoms: _312  and  _313
REMARK  133  A    between atoms: _319  and  _321
REMARK  134  A    between atoms: _321  and  _322
REMARK  135  A    between atoms: _321  and  _324
REMARK  136  A    between atoms: _327  and  _329
REMARK  137  A    between atoms: _329  and  _330
REMARK  138  A    between atoms: _329  and  _332
REMARK  139  A    between atoms: _332  and  _333
REMARK  140  A    between atoms: _336  and  _338
REMARK  141  A    between atoms: _338  and  _339
REMARK  142  A    between atoms: _338  and  _341
REMARK  143  A    between atoms: _341  and  _342
REMARK  144  A    between atoms: _344  and  _346
REMARK  145  A    between atoms: _346  and  _347
REMARK  146  A    between atoms: _346  and  _349
REMARK  147  A    between atoms: _349  and  _350
REMARK  148  A    between atoms: _353  and  _355
REMARK  149  A    between atoms: _355  and  _356
REMARK  150  A    between atoms: _358  and  _360
REMARK  151  A    between atoms: _360  and  _361
REMARK  152  A    between atoms: _360  and  _363
REMARK  153  A    between atoms: _363  and  _364
REMARK  154  A    between atoms: _367  and  _369
REMARK  155  A    between atoms: _369  and  _370
REMARK  156  A    between atoms: _369  and  _372
REMARK  157  A    between atoms: _375  and  _376
REMARK  158  A    between atoms: _381  and  _383
REMARK  159  A    between atoms: _383  and  _384
REMARK  160  A    between atoms: _383  and  _386
REMARK  161  A    between atoms: _386  and  _387
REMARK  162  A    between atoms: _390  and  _392
REMARK  163  A    between atoms: _392  and  _393
REMARK  164  A    between atoms: _392  and  _395
REMARK  165  A    between atoms: _398  and  _400
REMARK  166  A    between atoms: _400  and  _401
REMARK  167  A    between atoms: _400  and  _403
REMARK  168  A    between atoms: _406  and  _408
REMARK  169  A    between atoms: _408  and  _409
REMARK  170  A    between atoms: _408  and  _411
REMARK  171  A    between atoms: _411  and  _412
REMARK  172  A    between atoms: _416  and  _417
REMARK  173  A    between atoms: _422  and  _424
REMARK  174  A    between atoms: _424  and  _425
REMARK  175  A    between atoms: _424  and  _427
REMARK  176  A    between atoms: _427  and  _428
REMARK  177  A    between atoms: _433  and  _434
REMARK  178  A    between atoms: _436  and  _438
REMARK  179  A    between atoms: _438  and  _439
REMARK  180  A    between atoms: _438  and  _441
REMARK  181  A    between atoms: _441  and  _442
REMARK  182  A    between atoms: _442  and  _443
REMARK  183  A    between atoms: _445  and  _447
REMARK  184  A    between atoms: _447  and  _448
REMARK  185  A    between atoms: _447  and  _450
REMARK  186  A    between atoms: _450  and  _451
REMARK  187  A    between atoms: _451  and  _452
REMARK  188  A    between atoms: _452  and  _453
REMARK  189  A    between atoms: _453  and  _454
REMARK  190  A    between atoms: _458  and  _460
REMARK  191  A    between atoms: _460  and  _461
REMARK  192  A    between atoms: _460  and  _463
REMARK  193  A    between atoms: _463  and  _464
REMARK  194  A    between atoms: _469  and  _471
REMARK  195  A    between atoms: _471  and  _472
REMARK  196  A    between atoms: _474  and  _476
REMARK  197  A    between atoms: _476  and  _477
REMARK  198  A    between atoms: _476  and  _479
REMARK  199  A    between atoms: _479  and  _480
REMARK  200  A    between atoms: _483  and  _485
REMARK  201  A    between atoms: _485  and  _486
REMARK  202  A    between atoms: _485  and  _488
REMARK  203  A    between atoms: _488  and  _489
REMARK  204  A    between atoms: _494  and  _496
REMARK  205  A    between atoms: _496  and  _497
REMARK  206  A    between atoms: _496  and  _499
REMARK  207  A    between atoms: _499  and  _500
REMARK  208  A    between atoms: _503  and  _505
REMARK  209  A    between atoms: _505  and  _506
REMARK  210  A    between atoms: _505  and  _508
REMARK  211  A    between atoms: _508  and  _509
REMARK  212  A    between atoms: _515  and  _517
REMARK  213  A    between atoms: _517  and  _518
REMARK  214  A    between atoms: _517  and  _520
REMARK  215  A    between atoms: _523  and  _525
REMARK  216  A    between atoms: _525  and  _526
REMARK  217  A    between atoms: _525  and  _528
REMARK  218  A    between atoms: _528  and  _529
REMARK  219  A    between atoms: _534  and  _536
REMARK  220  A    between atoms: _536  and  _537
REMARK  221  A    between atoms: _536  and  _539
REMARK  222  A    between atoms: _539  and  _540
REMARK  223  A    between atoms: _540  and  _541
REMARK  224  A    between atoms: _541  and  _542
REMARK  225  A    between atoms: _551  and  _553
REMARK  226  A    between atoms: _553  and  _554
REMARK  227  A    between atoms: _553  and  _556
REMARK  228  A    between atoms: _556  and  _557
REMARK  229  A    between atoms: _562  and  _564
REMARK  230  A    between atoms: _564  and  _565
REMARK  231  A    between atoms: _564  and  _567
REMARK  232  A    between atoms: _569  and  _571
REMARK  233  A    between atoms: _571  and  _572
REMARK  234  A    between atoms: _571  and  _574
REMARK  235  A    between atoms: _574  and  _575
REMARK  236  A    between atoms: _575  and  _576
REMARK  237  A    between atoms: _578  and  _580
REMARK  238  A    between atoms: _580  and  _581
REMARK  239  A    between atoms: _580  and  _583
REMARK  240  A    between atoms: _583  and  _584
REMARK  241  A    between atoms: _587  and  _589
REMARK  242  A    between atoms: _589  and  _590
REMARK  243  A    between atoms: _589  and  _592
REMARK  244  A    between atoms: _592  and  _593
REMARK  245  A    between atoms: _593  and  _594
REMARK  246  A    between atoms: _594  and  _595
REMARK  247  A    between atoms: _595  and  _596
REMARK  248  A    between atoms: _600  and  _602
REMARK  249  A    between atoms: _602  and  _603
REMARK  250  A    between atoms: _602  and  _605
REMARK  251  A    between atoms: _608  and  _610
REMARK  252  A    between atoms: _610  and  _611
REMARK  253  A    between atoms: _614  and  _616
REMARK  254  A    between atoms: _616  and  _617
REMARK  255  A    between atoms: _616  and  _619
REMARK  256  A    between atoms: _619  and  _620
REMARK  257  A    between atoms: _623  and  _625
REMARK  258  A    between atoms: _625  and  _626
REMARK  259  A    between atoms: _625  and  _628
REMARK  260  A    between atoms: _628  and  _629
REMARK  261  A    between atoms: _635  and  _637
REMARK  262  A    between atoms: _637  and  _638
REMARK                            x       y       z     vdW  Elec       q    Type
REMARK                         _______ _______ _______ _____ _____    ______ ____
ROOT
ATOM      1  C   VAL A   4      25.534 -11.047  17.221  0.00  0.00    +0.241 C 
ATOM      2  O   VAL A   4      24.814 -12.034  17.386  0.00  0.00    -0.273 OA
ATOM      3  N   LYS A   5      25.265 -10.088  16.338  0.00  0.00    -0.297 N 
ATOM      4  H   LYS A   5      25.913  -9.278  16.264  0.00  0.00    +0.150 HD
ENDROOT
BRANCH   3   5
ATOM      5  CA  LYS A   5      24.092 -10.134  15.470  0.00  0.00    +0.149 C 
BRANCH   5   6
ATOM      6  C   LYS A   5      24.391 -10.873  14.169  0.00  0.00    +0.241 C 
ATOM      7  N   SER A   6      23.586 -11.894  13.885  0.00  0.00    -0.295 N 
ATOM      8  H   SER A   6      22.847 -12.150  14.571  0.00  0.00    +0.150 HD
ATOM      9  O   LYS A   5      25.326 -10.519  13.445  0.00  0.00    -0.273 OA
BRANCH   7  10
ATOM     10  CA  SER A   6      23.693 -12.672  12.653  0.00  0.00    +0.178 C 
BRANCH  10  11
ATOM     11  C   SER A   6      22.743 -12.116  11.599  0.00  0.00    +0.243 C 
ATOM     12  O   SER A   6      21.531 -12.088  11.807  0.00  0.00    -0.273 OA
ATOM     13  N   LEU A   7      23.301 -11.675  10.476  0.00  0.00    -0.298 N 
ATOM     14  H   LEU A   7      24.333 -11.743  10.368  0.00  0.00    +0.150 HD
BRANCH  13  15
ATOM     15  CA  LEU A   7      22.515 -11.097   9.386  0.00  0.00    +0.137 C 
BRANCH  15  16
ATOM     16  C   LEU A   7      22.064 -12.173   8.405  0.00  0.00    +0.227 C 
ATOM     17  O   LEU A   7      22.622 -12.324   7.315  0.00  0.00    -0.286 OA
ENDBRANCH  15  16
BRANCH  15  18
ATOM     18  CB  LEU A   7      23.303  -9.988   8.681  0.00  0.00    +0.028 C 
BRANCH  18  19
ATOM     19  CG  LEU A   7      23.595  -8.757   9.546  0.00  0.00    +0.002 C 
ATOM     20  CD2 LEU A   7      22.353  -7.894   9.717  0.00  0.00    +0.000 C 
ATOM     21  CD1 LEU A   7      24.712  -7.955   8.937  0.00  0.00    +0.000 C 
ENDBRANCH  18  19
ENDBRANCH  15  18
ENDBRANCH  13  15
ENDBRANCH  10  11
BRANCH  10  22
ATOM     22  CB  SER A   6      23.361 -14.144  12.923  0.00  0.00    +0.166 C 
BRANCH  22  23
ATOM     23  OG  SER A   6      23.575 -14.949  11.774  0.00  0.00    -0.380 OA
ATOM     24  H   SER A   6      23.351 -15.890  11.985  0.00  0.00    +0.211 HD
ENDBRANCH  22  23
ENDBRANCH  10  22
ENDBRANCH   7  10
ENDBRANCH   5   6
BRANCH   5  25
ATOM     25  CB  LYS A   5      23.577  -8.721  15.176  0.00  0.00    +0.029 C 
BRANCH  25  26
ATOM     26  CG  LYS A   5      22.223  -8.682  14.469  0.00  0.00    +0.000 C 
BRANCH  26  27
ATOM     27  CD  LYS A   5      21.891  -7.276  14.003  0.00  0.00    -0.024 C 
BRANCH  27  28
ATOM     28  CE  LYS A   5      20.703  -7.271  13.048  0.00  0.00    -0.086 C 
BRANCH  28  29
ATOM     29  NZ  LYS A   5      20.478  -5.907  12.497  0.00  0.00    +0.380 N 
ATOM     30  HZ1 LYS A   5      20.286  -5.247  13.277  0.00  0.00    -0.089 HD
ATOM     31  HZ2 LYS A   5      21.327  -5.599  11.981  0.00  0.00    -0.089 HD
ATOM     32  HZ3 LYS A   5      19.665  -5.926  11.849  0.00  0.00    -0.089 HD
ENDBRANCH  28  29
ENDBRANCH  27  28
ENDBRANCH  26  27
ENDBRANCH  25  26
ENDBRANCH   5  25
ENDBRANCH   3   5
BRANCH   1  33
ATOM     33  CA  VAL A   4      26.806 -10.857  18.046  0.00  0.00    +0.149 C 
BRANCH  33  35
ATOM     34  C   ALA A   3      26.902  -9.250  19.876  0.00  0.00    +0.241 C 
ATOM     35  N   VAL A   4      26.463 -10.404  19.384  0.00  0.00    -0.297 N 
ATOM     36  H   VAL A   4      25.853 -11.003  19.976  0.00  0.00    +0.150 HD
ATOM     37  O   ALA A   3      27.562  -8.443  19.221  0.00  0.00    -0.273 OA
BRANCH  34  38
ATOM     38  CA  ALA A   3      26.545  -8.967  21.325  0.00  0.00    +0.149 C 
ATOM     39  CB  ALA A   3      25.412  -7.957  21.415  0.00  0.00    +0.031 C 
BRANCH  38  42
ATOM     40  C   CYS A   2      28.431  -9.173  22.848  0.00  0.00    +0.242 C 
ATOM     41  O   CYS A   2      28.063 -10.266  23.286  0.00  0.00    -0.273 OA
ATOM     42  N   ALA A   3      27.726  -8.456  21.982  0.00  0.00    -0.297 N 
ATOM     43  H   ALA A   3      28.036  -7.487  21.768  0.00  0.00    +0.150 HD
BRANCH  40  44
ATOM     44  CA  CYS A   2      29.730  -8.526  23.315  0.00  0.00    +0.160 C 
BRANCH  44  47
ATOM     45  C   HIS A   1      30.835  -8.441  25.457  0.00  0.00    +0.239 C 
ATOM     46  O   HIS A   1      30.868  -7.210  25.421  0.00  0.00    -0.274 OA
ATOM     47  N   CYS A   2      30.346  -9.172  24.464  0.00  0.00    -0.296 N 
ATOM     48  H   CYS A   2      30.403 -10.210  24.507  0.00  0.00    +0.150 HD
BRANCH  45  49
ATOM     49  CA  HIS A   1      31.375  -9.203  26.665  0.00  0.00    +0.151 C 
BRANCH  49  50
ATOM     50  N   HIS A   1      32.738  -8.757  26.945  0.00  0.00    -0.238 NA
ATOM     51  H   HIS A   1      32.901  -8.129  27.758  0.00  0.00    +0.142 HD
ENDBRANCH  49  50
BRANCH  49  52
ATOM     52  CB  HIS A   1      30.474  -8.947  27.882  0.00  0.00    +0.074 C 
BRANCH  52  53
ATOM     53  CG  HIS A   1      29.180  -9.709  27.871  0.00  0.00    +0.082 A 
ATOM     54  ND1 HIS A   1      28.382  -9.823  28.990  0.00  0.00    -0.227 NA
ATOM     55  CE1 HIS A   1      27.313 -10.541  28.698  0.00  0.00    +0.199 A 
ATOM     56  NE2 HIS A   1      27.391 -10.906  27.432  0.00  0.00    -0.221 NA
ATOM     57  CD2 HIS A   1      28.552 -10.404  26.893  0.00  0.00    +0.115 A 
ENDBRANCH  52  53
ENDBRANCH  49  52
ENDBRANCH  45  49
ENDBRANCH  44  47
BRANCH  44  58
ATOM     58  CB  CYS A   2      30.730  -8.366  22.161  0.00  0.00    +0.098 C 
ATOM     59  SG  CYS A   2      31.615  -9.839  21.690  0.00  0.00    -0.080 S 
ENDBRANCH  44  58
ENDBRANCH  40  44
ENDBRANCH  38  42
ENDBRANCH  34  38
ENDBRANCH  33  35
BRANCH  33  60
ATOM     60  CB  VAL A   4      27.667 -12.159  18.086  0.00  0.00    +0.027 C 
ATOM     61  CG2 VAL A   4      28.942 -11.936  18.901  0.00  0.00    +0.002 C 
ATOM     62  CG1 VAL A   4      28.017 -12.637  16.676  0.00  0.00    +0.002 C 
ENDBRANCH  33  60
ENDBRANCH   1  33
TORSDOF 27
REMARK  Name = ../refined-set-2016/3u6i/3u6i_pocket.pdb
REMARK  262 active torsions:
REMARK  status: ('A' for Active; 'I' for Inactive)
REMARK    1  A    between atoms: _1  and  _3
REMARK    2  A    between atoms: _3  and  _4
REMARK    3  A    between atoms: _3  and  _6
REMARK    4  A    between atoms: _9  and  _11
REMARK    5  A    between atoms: _11  and  _12
REMARK    6  A    between atoms: _11  and  _14
REMARK    7  A    between atoms: _17  and  _19
REMARK    8  A    between atoms: _19  and  _20
REMARK    9  A    between atoms: _19  and  _22
REMARK   10  A    between atoms: _22  and  _23
REMARK   11  A    between atoms: _26  and  _28
REMARK   12  A    between atoms: _28  and  _29
REMARK   13  A    between atoms: _31  and  _33
REMARK   14  A    between atoms: _33  and  _34
REMARK   15  A    between atoms: _33  and  _36
REMARK   16  A    between atoms: _36  and  _37
REMARK   17  A    between atoms: _37  and  _38
REMARK   18  A    between atoms: _38  and  _39
REMARK   19  A    between atoms: _48  and  _50
REMARK   20  A    between atoms: _50  and  _51
REMARK   21  A    between atoms: _53  and  _55
REMARK   22  A    between atoms: _55  and  _56
REMARK   23  A    between atoms: _55  and  _58
REMARK   24  A    between atoms: _58  and  _59
REMARK   25  A    between atoms: _64  and  _66
REMARK   26  A    between atoms: _66  and  _67
REMARK   27  A    between atoms: _66  and  _69
REMARK   28  A    between atoms: _69  and  _70
REMARK   29  A    between atoms: _76  and  _78
REMARK   30  A    between atoms: _78  and  _79
REMARK   31  A    between atoms: _81  and  _83
REMARK   32  A    between atoms: _83  and  _84
REMARK   33  A    between atoms: _83  and  _86
REMARK   34  A    between atoms: _88  and  _90
REMARK   35  A    between atoms: _90  and  _91
REMARK   36  A    between atoms: _90  and  _93
REMARK   37  A    between atoms: _96  and  _98
REMARK   38  A    between atoms: _98  and  _99
REMARK   39  A    between atoms: _98  and  _101
REMARK   40  A    between atoms: _101  and  _102
REMARK   41  A    between atoms: _107  and  _108
REMARK   42  A    between atoms: _110  and  _112
REMARK   43  A    between atoms: _112  and  _113
REMARK   44  A    between atoms: _112  and  _115
REMARK   45  A    between atoms: _115  and  _116
REMARK   46  A    between atoms: _121  and  _123
REMARK   47  A    between atoms: _123  and  _124
REMARK   48  A    between atoms: _123  and  _126
REMARK   49  A    between atoms: _126  and  _127
REMARK   50  A    between atoms: _132  and  _134
REMARK   51  A    between atoms: _134  and  _135
REMARK   52  A    between atoms: _134  and  _137
REMARK   53  A    between atoms: _139  and  _141
REMARK   54  A    between atoms: _141  and  _142
REMARK   55  A    between atoms: _145  and  _147
REMARK   56  A    between atoms: _147  and  _148
REMARK   57  A    between atoms: _147  and  _150
REMARK   58  A    between atoms: _153  and  _155
REMARK   59  A    between atoms: _155  and  _156
REMARK   60  A    between atoms: _155  and  _158
REMARK   61  A    between atoms: _158  and  _159
REMARK   62  A    between atoms: _159  and  _160
REMARK   63  A    between atoms: _160  and  _161
REMARK   64  A    between atoms: _161  and  _162
REMARK   65  A    between atoms: _166  and  _168
REMARK   66  A    between atoms: _168  and  _169
REMARK   67  A    between atoms: _168  and  _171
REMARK   68  A    between atoms: _171  and  _172
REMARK   69  A    between atoms: _174  and  _176
REMARK   70  A    between atoms: _176  and  _177
REMARK   71  A    between atoms: _176  and  _179
REMARK   72  A    between atoms: _179  and  _180
REMARK   73  A    between atoms: _183  and  _185
REMARK   74  A    between atoms: _185  and  _186
REMARK   75  A    between atoms: _185  and  _188
REMARK   76  A    between atoms: _188  and  _189
REMARK   77  A    between atoms: _192  and  _194
REMARK   78  A    between atoms: _194  and  _195
REMARK   79  A    between atoms: _194  and  _197
REMARK   80  A    between atoms: _197  and  _198
REMARK   81  A    between atoms: _198  and  _199
REMARK   82  A    between atoms: _202  and  _204
REMARK   83  A    between atoms: _204  and  _205
REMARK   84  A    between atoms: _204  and  _207
REMARK   85  A    between atoms: _210  and  _212
REMARK   86  A    between atoms: _212  and  _213
REMARK   87  A    between atoms: _212  and  _215
REMARK   88  A    between atoms: _215  and  _216
REMARK   89  A    between atoms: _216  and  _217
REMARK   90  A    between atoms: _222  and  _224
REMARK   91  A    between atoms: _224  and  _225
REMARK   92  A    between atoms: _224  and  _227
REMARK   93  A    between atoms: _227  and  _228
REMARK   94  A    between atoms: _234  and  _236
REMARK   95  A    between atoms: _236  and  _237
REMARK   96  A    between atoms: _236  and  _239
REMARK   97  A    between atoms: _239  and  _240
REMARK   98  A    between atoms: _243  and  _245
REMARK   99  A    between atoms: _245  and  _246
REMARK  100  A    between atoms: _245  and  _248
REMARK  101  A    between atoms: _248  and  _249
REMARK  102  A    between atoms: _252  and  _254
REMARK  103  A    between atoms: _254  and  _255
REMARK  104  A    between atoms: _254  and  _257
REMARK  105  A    between atoms: _257  and  _258
REMARK  106  A    between atoms: _258  and  _259
REMARK  107  A    between atoms: _262  and  _264
REMARK  108  A    between atoms: _264  and  _265
REMARK  109  A    between atoms: _267  and  _269
REMARK  110  A    between atoms: _269  and  _270
REMARK  111  A    between atoms: _269  and  _272
REMARK  112  A    between atoms: _272  and  _273
REMARK  113  A    between atoms: _276  and  _278
REMARK  114  A    between atoms: _278  and  _279
REMARK  115  A    between atoms: _278  and  _281
REMARK  116  A    between atoms: _281  and  _282
REMARK  117  A    between atoms: _285  and  _287
REMARK  118  A    between atoms: _287  and  _288
REMARK  119  A    between atoms: _287  and  _290
REMARK  120  A    between atoms: _290  and  _291
REMARK  121  A    between atoms: _291  and  _292
REMARK  122  A    between atoms: _294  and  _296
REMARK  123  A    between atoms: _296  and  _297
REMARK  124  A    between atoms: _296  and  _299
REMARK  125  A    between atoms: _299  and  _300
REMARK  126  A    between atoms: _300  and  _301
REMARK  127  A    between atoms: _301  and  _302
REMARK  128  A    between atoms: _302  and  _303
REMARK  129  A    between atoms: _307  and  _309
REMARK  130  A    between atoms: _309  and  _310
REMARK  131  A    between atoms: _309  and  _312
REMARK  132  A    between atoms: _312  and  _313
REMARK  133  A    between atoms: _319  and  _321
REMARK  134  A    between atoms: _321  and  _322
REMARK  135  A    between atoms: _321  and  _324
REMARK  136  A    between atoms: _327  and  _329
REMARK  137  A    between atoms: _329  and  _330
REMARK  138  A    between atoms: _329  and  _332
REMARK  139  A    between atoms: _332  and  _333
REMARK  140  A    between atoms: _336  and  _338
REMARK  141  A    between atoms: _338  and  _339
REMARK  142  A    between atoms: _338  and  _341
REMARK  143  A    between atoms: _341  and  _342
REMARK  144  A    between atoms: _344  and  _346
REMARK  145  A    between atoms: _346  and  _347
REMARK  146  A    between atoms: _346  and  _349
REMARK  147  A    between atoms: _349  and  _350
REMARK  148  A    between atoms: _353  and  _355
REMARK  149  A    between atoms: _355  and  _356
REMARK  150  A    between atoms: _358  and  _360
REMARK  151  A    between atoms: _360  and  _361
REMARK  152  A    between atoms: _360  and  _363
REMARK  153  A    between atoms: _363  and  _364
REMARK  154  A    between atoms: _367  and  _369
REMARK  155  A    between atoms: _369  and  _370
REMARK  156  A    between atoms: _369  and  _372
REMARK  157  A    between atoms: _375  and  _376
REMARK  158  A    between atoms: _381  and  _383
REMARK  159  A    between atoms: _383  and  _384
REMARK  160  A    between atoms: _383  and  _386
REMARK  161  A    between atoms: _386  and  _387
REMARK  162  A    between atoms: _390  and  _392
REMARK  163  A    between atoms: _392  and  _393
REMARK  164  A    between atoms: _392  and  _395
REMARK  165  A    between atoms: _398  and  _400
REMARK  166  A    between atoms: _400  and  _401
REMARK  167  A    between atoms: _400  and  _403
REMARK  168  A    between atoms: _406  and  _408
REMARK  169  A    between atoms: _408  and  _409
REMARK  170  A    between atoms: _408  and  _411
REMARK  171  A    between atoms: _411  and  _412
REMARK  172  A    between atoms: _416  and  _417
REMARK  173  A    between atoms: _422  and  _424
REMARK  174  A    between atoms: _424  and  _425
REMARK  175  A    between atoms: _424  and  _427
REMARK  176  A    between atoms: _427  and  _428
REMARK  177  A    between atoms: _433  and  _434
REMARK  178  A    between atoms: _436  and  _438
REMARK  179  A    between atoms: _438  and  _439
REMARK  180  A    between atoms: _438  and  _441
REMARK  181  A    between atoms: _441  and  _442
REMARK  182  A    between atoms: _442  and  _443
REMARK  183  A    between atoms: _445  and  _447
REMARK  184  A    between atoms: _447  and  _448
REMARK  185  A    between atoms: _447  and  _450
REMARK  186  A    between atoms: _450  and  _451
REMARK  187  A    between atoms: _451  and  _452
REMARK  188  A    between atoms: _452  and  _453
REMARK  189  A    between atoms: _453  and  _454
REMARK  190  A    between atoms: _458  and  _460
REMARK  191  A    between atoms: _460  and  _461
REMARK  192  A    between atoms: _460  and  _463
REMARK  193  A    between atoms: _463  and  _464
REMARK  194  A    between atoms: _469  and  _471
REMARK  195  A    between atoms: _471  and  _472
REMARK  196  A    between atoms: _474  and  _476
REMARK  197  A    between atoms: _476  and  _477
REMARK  198  A    between atoms: _476  and  _479
REMARK  199  A    between atoms: _479  and  _480
REMARK  200  A    between atoms: _483  and  _485
REMARK  201  A    between atoms: _485  and  _486
REMARK  202  A    between atoms: _485  and  _488
REMARK  203  A    between atoms: _488  and  _489
REMARK  204  A    between atoms: _494  and  _496
REMARK  205  A    between atoms: _496  and  _497
REMARK  206  A    between atoms: _496  and  _499
REMARK  207  A    between atoms: _499  and  _500
REMARK  208  A    between atoms: _503  and  _505
REMARK  209  A    between atoms: _505  and  _506
REMARK  210  A    between atoms: _505  and  _508
REMARK  211  A    between atoms: _508  and  _509
REMARK  212  A    between atoms: _515  and  _517
REMARK  213  A    between atoms: _517  and  _518
REMARK  214  A    between atoms: _517  and  _520
REMARK  215  A    between atoms: _523  and  _525
REMARK  216  A    between atoms: _525  and  _526
REMARK  217  A    between atoms: _525  and  _528
REMARK  218  A    between atoms: _528  and  _529
REMARK  219  A    between atoms: _534  and  _536
REMARK  220  A    between atoms: _536  and  _537
REMARK  221  A    between atoms: _536  and  _539
REMARK  222  A    between atoms: _539  and  _540
REMARK  223  A    between atoms: _540  and  _541
REMARK  224  A    between atoms: _541  and  _542
REMARK  225  A    between atoms: _551  and  _553
REMARK  226  A    between atoms: _553  and  _554
REMARK  227  A    between atoms: _553  and  _556
REMARK  228  A    between atoms: _556  and  _557
REMARK  229  A    between atoms: _562  and  _564
REMARK  230  A    between atoms: _564  and  _565
REMARK  231  A    between atoms: _564  and  _567
REMARK  232  A    between atoms: _569  and  _571
REMARK  233  A    between atoms: _571  and  _572
REMARK  234  A    between atoms: _571  and  _574
REMARK  235  A    between atoms: _574  and  _575
REMARK  236  A    between atoms: _575  and  _576
REMARK  237  A    between atoms: _578  and  _580
REMARK  238  A    between atoms: _580  and  _581
REMARK  239  A    between atoms: _580  and  _583
REMARK  240  A    between atoms: _583  and  _584
REMARK  241  A    between atoms: _587  and  _589
REMARK  242  A    between atoms: _589  and  _590
REMARK  243  A    between atoms: _589  and  _592
REMARK  244  A    between atoms: _592  and  _593
REMARK  245  A    between atoms: _593  and  _594
REMARK  246  A    between atoms: _594  and  _595
REMARK  247  A    between atoms: _595  and  _596
REMARK  248  A    between atoms: _600  and  _602
REMARK  249  A    between atoms: _602  and  _603
REMARK  250  A    between atoms: _602  and  _605
REMARK  251  A    between atoms: _608  and  _610
REMARK  252  A    between atoms: _610  and  _611
REMARK  253  A    between atoms: _614  and  _616
REMARK  254  A    between atoms: _616  and  _617
REMARK  255  A    between atoms: _616  and  _619
REMARK  256  A    between atoms: _619  and  _620
REMARK  257  A    between atoms: _623  and  _625
REMARK  258  A    between atoms: _625  and  _626
REMARK  259  A    between atoms: _625  and  _628
REMARK  260  A    between atoms: _628  and  _629
REMARK  261  A    between atoms: _635  and  _637
REMARK  262  A    between atoms: _637  and  _638
REMARK                            x       y       z     vdW  Elec       q    Type
REMARK                         _______ _______ _______ _____ _____    ______ ____
ROOT
ATOM      1  CA  ILE A   1      21.994 -11.497   3.453  0.00  0.00    +0.133 C 
ENDROOT
BRANCH   1   2
ATOM      2  N   ILE A   1      20.976 -11.798   4.461  0.00  0.00    -0.239 NA
ATOM      3  H   ILE A   1      21.269 -11.919   5.452  0.00  0.00    +0.142 HD
ENDBRANCH   1   2
BRANCH   1   4
ATOM      4  CB  ILE A   1      23.262 -10.859   4.087  0.00  0.00    +0.023 C 
ATOM      5  CG2 ILE A   1      24.423 -10.836   3.089  0.00  0.00    +0.002 C 
BRANCH   4   6
ATOM      6  CG1 ILE A   1      22.945  -9.443   4.583  0.00  0.00    +0.002 C 
ATOM      7  CD1 ILE A   1      24.110  -8.717   5.229  0.00  0.00    +0.000 C 
ENDBRANCH   4   6
ENDBRANCH   1   4
BRANCH   1   8
ATOM      8  C   ILE A   1      22.348 -12.757   2.661  0.00  0.00    +0.224 C 
ATOM      9  O   ILE A   1      22.709 -13.783   3.242  0.00  0.00    -0.287 OA
ENDBRANCH   1   8
TORSDOF 4
REMARK  Name = ../refined-set-2016/3u6i/3u6i_pocket.pdb
REMARK  262 active torsions:
REMARK  status: ('A' for Active; 'I' for Inactive)
REMARK    1  A    between atoms: _1  and  _3
REMARK    2  A    between atoms: _3  and  _4
REMARK    3  A    between atoms: _3  and  _6
REMARK    4  A    between atoms: _9  and  _11
REMARK    5  A    between atoms: _11  and  _12
REMARK    6  A    between atoms: _11  and  _14
REMARK    7  A    between atoms: _17  and  _19
REMARK    8  A    between atoms: _19  and  _20
REMARK    9  A    between atoms: _19  and  _22
REMARK   10  A    between atoms: _22  and  _23
REMARK   11  A    between atoms: _26  and  _28
REMARK   12  A    between atoms: _28  and  _29
REMARK   13  A    between atoms: _31  and  _33
REMARK   14  A    between atoms: _33  and  _34
REMARK   15  A    between atoms: _33  and  _36
REMARK   16  A    between atoms: _36  and  _37
REMARK   17  A    between atoms: _37  and  _38
REMARK   18  A    between atoms: _38  and  _39
REMARK   19  A    between atoms: _48  and  _50
REMARK   20  A    between atoms: _50  and  _51
REMARK   21  A    between atoms: _53  and  _55
REMARK   22  A    between atoms: _55  and  _56
REMARK   23  A    between atoms: _55  and  _58
REMARK   24  A    between atoms: _58  and  _59
REMARK   25  A    between atoms: _64  and  _66
REMARK   26  A    between atoms: _66  and  _67
REMARK   27  A    between atoms: _66  and  _69
REMARK   28  A    between atoms: _69  and  _70
REMARK   29  A    between atoms: _76  and  _78
REMARK   30  A    between atoms: _78  and  _79
REMARK   31  A    between atoms: _81  and  _83
REMARK   32  A    between atoms: _83  and  _84
REMARK   33  A    between atoms: _83  and  _86
REMARK   34  A    between atoms: _88  and  _90
REMARK   35  A    between atoms: _90  and  _91
REMARK   36  A    between atoms: _90  and  _93
REMARK   37  A    between atoms: _96  and  _98
REMARK   38  A    between atoms: _98  and  _99
REMARK   39  A    between atoms: _98  and  _101
REMARK   40  A    between atoms: _101  and  _102
REMARK   41  A    between atoms: _107  and  _108
REMARK   42  A    between atoms: _110  and  _112
REMARK   43  A    between atoms: _112  and  _113
REMARK   44  A    between atoms: _112  and  _115
REMARK   45  A    between atoms: _115  and  _116
REMARK   46  A    between atoms: _121  and  _123
REMARK   47  A    between atoms: _123  and  _124
REMARK   48  A    between atoms: _123  and  _126
REMARK   49  A    between atoms: _126  and  _127
REMARK   50  A    between atoms: _132  and  _134
REMARK   51  A    between atoms: _134  and  _135
REMARK   52  A    between atoms: _134  and  _137
REMARK   53  A    between atoms: _139  and  _141
REMARK   54  A    between atoms: _141  and  _142
REMARK   55  A    between atoms: _145  and  _147
REMARK   56  A    between atoms: _147  and  _148
REMARK   57  A    between atoms: _147  and  _150
REMARK   58  A    between atoms: _153  and  _155
REMARK   59  A    between atoms: _155  and  _156
REMARK   60  A    between atoms: _155  and  _158
REMARK   61  A    between atoms: _158  and  _159
REMARK   62  A    between atoms: _159  and  _160
REMARK   63  A    between atoms: _160  and  _161
REMARK   64  A    between atoms: _161  and  _162
REMARK   65  A    between atoms: _166  and  _168
REMARK   66  A    between atoms: _168  and  _169
REMARK   67  A    between atoms: _168  and  _171
REMARK   68  A    between atoms: _171  and  _172
REMARK   69  A    between atoms: _174  and  _176
REMARK   70  A    between atoms: _176  and  _177
REMARK   71  A    between atoms: _176  and  _179
REMARK   72  A    between atoms: _179  and  _180
REMARK   73  A    between atoms: _183  and  _185
REMARK   74  A    between atoms: _185  and  _186
REMARK   75  A    between atoms: _185  and  _188
REMARK   76  A    between atoms: _188  and  _189
REMARK   77  A    between atoms: _192  and  _194
REMARK   78  A    between atoms: _194  and  _195
REMARK   79  A    between atoms: _194  and  _197
REMARK   80  A    between atoms: _197  and  _198
REMARK   81  A    between atoms: _198  and  _199
REMARK   82  A    between atoms: _202  and  _204
REMARK   83  A    between atoms: _204  and  _205
REMARK   84  A    between atoms: _204  and  _207
REMARK   85  A    between atoms: _210  and  _212
REMARK   86  A    between atoms: _212  and  _213
REMARK   87  A    between atoms: _212  and  _215
REMARK   88  A    between atoms: _215  and  _216
REMARK   89  A    between atoms: _216  and  _217
REMARK   90  A    between atoms: _222  and  _224
REMARK   91  A    between atoms: _224  and  _225
REMARK   92  A    between atoms: _224  and  _227
REMARK   93  A    between atoms: _227  and  _228
REMARK   94  A    between atoms: _234  and  _236
REMARK   95  A    between atoms: _236  and  _237
REMARK   96  A    between atoms: _236  and  _239
REMARK   97  A    between atoms: _239  and  _240
REMARK   98  A    between atoms: _243  and  _245
REMARK   99  A    between atoms: _245  and  _246
REMARK  100  A    between atoms: _245  and  _248
REMARK  101  A    between atoms: _248  and  _249
REMARK  102  A    between atoms: _252  and  _254
REMARK  103  A    between atoms: _254  and  _255
REMARK  104  A    between atoms: _254  and  _257
REMARK  105  A    between atoms: _257  and  _258
REMARK  106  A    between atoms: _258  and  _259
REMARK  107  A    between atoms: _262  and  _264
REMARK  108  A    between atoms: _264  and  _265
REMARK  109  A    between atoms: _267  and  _269
REMARK  110  A    between atoms: _269  and  _270
REMARK  111  A    between atoms: _269  and  _272
REMARK  112  A    between atoms: _272  and  _273
REMARK  113  A    between atoms: _276  and  _278
REMARK  114  A    between atoms: _278  and  _279
REMARK  115  A    between atoms: _278  and  _281
REMARK  116  A    between atoms: _281  and  _282
REMARK  117  A    between atoms: _285  and  _287
REMARK  118  A    between atoms: _287  and  _288
REMARK  119  A    between atoms: _287  and  _290
REMARK  120  A    between atoms: _290  and  _291
REMARK  121  A    between atoms: _291  and  _292
REMARK  122  A    between atoms: _294  and  _296
REMARK  123  A    between atoms: _296  and  _297
REMARK  124  A    between atoms: _296  and  _299
REMARK  125  A    between atoms: _299  and  _300
REMARK  126  A    between atoms: _300  and  _301
REMARK  127  A    between atoms: _301  and  _302
REMARK  128  A    between atoms: _302  and  _303
REMARK  129  A    between atoms: _307  and  _309
REMARK  130  A    between atoms: _309  and  _310
REMARK  131  A    between atoms: _309  and  _312
REMARK  132  A    between atoms: _312  and  _313
REMARK  133  A    between atoms: _319  and  _321
REMARK  134  A    between atoms: _321  and  _322
REMARK  135  A    between atoms: _321  and  _324
REMARK  136  A    between atoms: _327  and  _329
REMARK  137  A    between atoms: _329  and  _330
REMARK  138  A    between atoms: _329  and  _332
REMARK  139  A    between atoms: _332  and  _333
REMARK  140  A    between atoms: _336  and  _338
REMARK  141  A    between atoms: _338  and  _339
REMARK  142  A    between atoms: _338  and  _341
REMARK  143  A    between atoms: _341  and  _342
REMARK  144  A    between atoms: _344  and  _346
REMARK  145  A    between atoms: _346  and  _347
REMARK  146  A    between atoms: _346  and  _349
REMARK  147  A    between atoms: _349  and  _350
REMARK  148  A    between atoms: _353  and  _355
REMARK  149  A    between atoms: _355  and  _356
REMARK  150  A    between atoms: _358  and  _360
REMARK  151  A    between atoms: _360  and  _361
REMARK  152  A    between atoms: _360  and  _363
REMARK  153  A    between atoms: _363  and  _364
REMARK  154  A    between atoms: _367  and  _369
REMARK  155  A    between atoms: _369  and  _370
REMARK  156  A    between atoms: _369  and  _372
REMARK  157  A    between atoms: _375  and  _376
REMARK  158  A    between atoms: _381  and  _383
REMARK  159  A    between atoms: _383  and  _384
REMARK  160  A    between atoms: _383  and  _386
REMARK  161  A    between atoms: _386  and  _387
REMARK  162  A    between atoms: _390  and  _392
REMARK  163  A    between atoms: _392  and  _393
REMARK  164  A    between atoms: _392  and  _395
REMARK  165  A    between atoms: _398  and  _400
REMARK  166  A    between atoms: _400  and  _401
REMARK  167  A    between atoms: _400  and  _403
REMARK  168  A    between atoms: _406  and  _408
REMARK  169  A    between atoms: _408  and  _409
REMARK  170  A    between atoms: _408  and  _411
REMARK  171  A    between atoms: _411  and  _412
REMARK  172  A    between atoms: _416  and  _417
REMARK  173  A    between atoms: _422  and  _424
REMARK  174  A    between atoms: _424  and  _425
REMARK  175  A    between atoms: _424  and  _427
REMARK  176  A    between atoms: _427  and  _428
REMARK  177  A    between atoms: _433  and  _434
REMARK  178  A    between atoms: _436  and  _438
REMARK  179  A    between atoms: _438  and  _439
REMARK  180  A    between atoms: _438  and  _441
REMARK  181  A    between atoms: _441  and  _442
REMARK  182  A    between atoms: _442  and  _443
REMARK  183  A    between atoms: _445  and  _447
REMARK  184  A    between atoms: _447  and  _448
REMARK  185  A    between atoms: _447  and  _450
REMARK  186  A    between atoms: _450  and  _451
REMARK  187  A    between atoms: _451  and  _452
REMARK  188  A    between atoms: _452  and  _453
REMARK  189  A    between atoms: _453  and  _454
REMARK  190  A    between atoms: _458  and  _460
REMARK  191  A    between atoms: _460  and  _461
REMARK  192  A    between atoms: _460  and  _463
REMARK  193  A    between atoms: _463  and  _464
REMARK  194  A    between atoms: _469  and  _471
REMARK  195  A    between atoms: _471  and  _472
REMARK  196  A    between atoms: _474  and  _476
REMARK  197  A    between atoms: _476  and  _477
REMARK  198  A    between atoms: _476  and  _479
REMARK  199  A    between atoms: _479  and  _480
REMARK  200  A    between atoms: _483  and  _485
REMARK  201  A    between atoms: _485  and  _486
REMARK  202  A    between atoms: _485  and  _488
REMARK  203  A    between atoms: _488  and  _489
REMARK  204  A    between atoms: _494  and  _496
REMARK  205  A    between atoms: _496  and  _497
REMARK  206  A    between atoms: _496  and  _499
REMARK  207  A    between atoms: _499  and  _500
REMARK  208  A    between atoms: _503  and  _505
REMARK  209  A    between atoms: _505  and  _506
REMARK  210  A    between atoms: _505  and  _508
REMARK  211  A    between atoms: _508  and  _509
REMARK  212  A    between atoms: _515  and  _517
REMARK  213  A    between atoms: _517  and  _518
REMARK  214  A    between atoms: _517  and  _520
REMARK  215  A    between atoms: _523  and  _525
REMARK  216  A    between atoms: _525  and  _526
REMARK  217  A    between atoms: _525  and  _528
REMARK  218  A    between atoms: _528  and  _529
REMARK  219  A    between atoms: _534  and  _536
REMARK  220  A    between atoms: _536  and  _537
REMARK  221  A    between atoms: _536  and  _539
REMARK  222  A    between atoms: _539  and  _540
REMARK  223  A    between atoms: _540  and  _541
REMARK  224  A    between atoms: _541  and  _542
REMARK  225  A    between atoms: _551  and  _553
REMARK  226  A    between atoms: _553  and  _554
REMARK  227  A    between atoms: _553  and  _556
REMARK  228  A    between atoms: _556  and  _557
REMARK  229  A    between atoms: _562  and  _564
REMARK  230  A    between atoms: _564  and  _565
REMARK  231  A    between atoms: _564  and  _567
REMARK  232  A    between atoms: _569  and  _571
REMARK  233  A    between atoms: _571  and  _572
REMARK  234  A    between atoms: _571  and  _574
REMARK  235  A    between atoms: _574  and  _575
REMARK  236  A    between atoms: _575  and  _576
REMARK  237  A    between atoms: _578  and  _580
REMARK  238  A    between atoms: _580  and  _581
REMARK  239  A    between atoms: _580  and  _583
REMARK  240  A    between atoms: _583  and  _584
REMARK  241  A    between atoms: _587  and  _589
REMARK  242  A    between atoms: _589  and  _590
REMARK  243  A    between atoms: _589  and  _592
REMARK  244  A    between atoms: _592  and  _593
REMARK  245  A    between atoms: _593  and  _594
REMARK  246  A    between atoms: _594  and  _595
REMARK  247  A    between atoms: _595  and  _596
REMARK  248  A    between atoms: _600  and  _602
REMARK  249  A    between atoms: _602  and  _603
REMARK  250  A    between atoms: _602  and  _605
REMARK  251  A    between atoms: _608  and  _610
REMARK  252  A    between atoms: _610  and  _611
REMARK  253  A    between atoms: _614  and  _616
REMARK  254  A    between atoms: _616  and  _617
REMARK  255  A    between atoms: _616  and  _619
REMARK  256  A    between atoms: _619  and  _620
REMARK  257  A    between atoms: _623  and  _625
REMARK  258  A    between atoms: _625  and  _626
REMARK  259  A    between atoms: _625  and  _628
REMARK  260  A    between atoms: _628  and  _629
REMARK  261  A    between atoms: _635  and  _637
REMARK  262  A    between atoms: _637  and  _638
REMARK                            x       y       z     vdW  Elec       q    Type
REMARK                         _______ _______ _______ _____ _____    ______ ____
ROOT
ATOM      1  C   GLU A   1      25.418  -7.446   0.805  0.00  0.00    +0.238 C 
ATOM      2  O   GLU A   1      25.439  -6.747   1.815  0.00  0.00    -0.274 OA
ATOM      3  N   VAL A   2      26.381  -8.315   0.498  0.00  0.00    -0.298 N 
ATOM      4  H   VAL A   2      26.266  -8.916  -0.343  0.00  0.00    +0.150 HD
ENDROOT
BRANCH   1   5
ATOM      5  CA  GLU A   1      24.248  -7.348  -0.169  0.00  0.00    +0.145 C 
BRANCH   5   6
ATOM      6  N   GLU A   1      24.659  -7.552  -1.561  0.00  0.00    -0.238 NA
ATOM      7  H   GLU A   1      24.351  -8.418  -2.047  0.00  0.00    +0.142 HD
ENDBRANCH   5   6
BRANCH   5   8
ATOM      8  CB  GLU A   1      23.153  -8.342   0.225  0.00  0.00    +0.038 C 
BRANCH   8   9
ATOM      9  CG  GLU A   1      21.847  -8.146  -0.527  0.00  0.00    +0.116 C 
BRANCH   9  10
ATOM     10  CD  GLU A   1      20.837  -9.250  -0.274  0.00  0.00    +0.365 C 
ATOM     11  OE2 GLU A   1      19.647  -8.916  -0.082  0.00  0.00    -0.246 OA
ATOM     12  OE1 GLU A   1      21.221 -10.445  -0.284  0.00  0.00    -0.246 OA
ENDBRANCH   9  10
ENDBRANCH   8   9
ENDBRANCH   5   8
ENDBRANCH   1   5
BRANCH   3  13
ATOM     13  CA  VAL A   2      27.595  -8.452   1.304  0.00  0.00    +0.137 C 
BRANCH  13  14
ATOM     14  CB  VAL A   2      28.411  -9.723   0.933  0.00  0.00    +0.026 C 
ATOM     15  CG2 VAL A   2      29.730  -9.767   1.698  0.00  0.00    +0.002 C 
ATOM     16  CG1 VAL A   2      27.602 -10.988   1.203  0.00  0.00    +0.002 C 
ENDBRANCH  13  14
BRANCH  13  17
ATOM     17  C   VAL A   2      28.463  -7.202   1.157  0.00  0.00    +0.227 C 
ATOM     18  O   VAL A   2      28.990  -6.686   2.142  0.00  0.00    -0.286 OA
ENDBRANCH  13  17
ENDBRANCH   3  13
TORSDOF 8
REMARK  Name = ../refined-set-2016/3u6i/3u6i_pocket.pdb
REMARK  262 active torsions:
REMARK  status: ('A' for Active; 'I' for Inactive)
REMARK    1  A    between atoms: _1  and  _3
REMARK    2  A    between atoms: _3  and  _4
REMARK    3  A    between atoms: _3  and  _6
REMARK    4  A    between atoms: _9  and  _11
REMARK    5  A    between atoms: _11  and  _12
REMARK    6  A    between atoms: _11  and  _14
REMARK    7  A    between atoms: _17  and  _19
REMARK    8  A    between atoms: _19  and  _20
REMARK    9  A    between atoms: _19  and  _22
REMARK   10  A    between atoms: _22  and  _23
REMARK   11  A    between atoms: _26  and  _28
REMARK   12  A    between atoms: _28  and  _29
REMARK   13  A    between atoms: _31  and  _33
REMARK   14  A    between atoms: _33  and  _34
REMARK   15  A    between atoms: _33  and  _36
REMARK   16  A    between atoms: _36  and  _37
REMARK   17  A    between atoms: _37  and  _38
REMARK   18  A    between atoms: _38  and  _39
REMARK   19  A    between atoms: _48  and  _50
REMARK   20  A    between atoms: _50  and  _51
REMARK   21  A    between atoms: _53  and  _55
REMARK   22  A    between atoms: _55  and  _56
REMARK   23  A    between atoms: _55  and  _58
REMARK   24  A    between atoms: _58  and  _59
REMARK   25  A    between atoms: _64  and  _66
REMARK   26  A    between atoms: _66  and  _67
REMARK   27  A    between atoms: _66  and  _69
REMARK   28  A    between atoms: _69  and  _70
REMARK   29  A    between atoms: _76  and  _78
REMARK   30  A    between atoms: _78  and  _79
REMARK   31  A    between atoms: _81  and  _83
REMARK   32  A    between atoms: _83  and  _84
REMARK   33  A    between atoms: _83  and  _86
REMARK   34  A    between atoms: _88  and  _90
REMARK   35  A    between atoms: _90  and  _91
REMARK   36  A    between atoms: _90  and  _93
REMARK   37  A    between atoms: _96  and  _98
REMARK   38  A    between atoms: _98  and  _99
REMARK   39  A    between atoms: _98  and  _101
REMARK   40  A    between atoms: _101  and  _102
REMARK   41  A    between atoms: _107  and  _108
REMARK   42  A    between atoms: _110  and  _112
REMARK   43  A    between atoms: _112  and  _113
REMARK   44  A    between atoms: _112  and  _115
REMARK   45  A    between atoms: _115  and  _116
REMARK   46  A    between atoms: _121  and  _123
REMARK   47  A    between atoms: _123  and  _124
REMARK   48  A    between atoms: _123  and  _126
REMARK   49  A    between atoms: _126  and  _127
REMARK   50  A    between atoms: _132  and  _134
REMARK   51  A    between atoms: _134  and  _135
REMARK   52  A    between atoms: _134  and  _137
REMARK   53  A    between atoms: _139  and  _141
REMARK   54  A    between atoms: _141  and  _142
REMARK   55  A    between atoms: _145  and  _147
REMARK   56  A    between atoms: _147  and  _148
REMARK   57  A    between atoms: _147  and  _150
REMARK   58  A    between atoms: _153  and  _155
REMARK   59  A    between atoms: _155  and  _156
REMARK   60  A    between atoms: _155  and  _158
REMARK   61  A    between atoms: _158  and  _159
REMARK   62  A    between atoms: _159  and  _160
REMARK   63  A    between atoms: _160  and  _161
REMARK   64  A    between atoms: _161  and  _162
REMARK   65  A    between atoms: _166  and  _168
REMARK   66  A    between atoms: _168  and  _169
REMARK   67  A    between atoms: _168  and  _171
REMARK   68  A    between atoms: _171  and  _172
REMARK   69  A    between atoms: _174  and  _176
REMARK   70  A    between atoms: _176  and  _177
REMARK   71  A    between atoms: _176  and  _179
REMARK   72  A    between atoms: _179  and  _180
REMARK   73  A    between atoms: _183  and  _185
REMARK   74  A    between atoms: _185  and  _186
REMARK   75  A    between atoms: _185  and  _188
REMARK   76  A    between atoms: _188  and  _189
REMARK   77  A    between atoms: _192  and  _194
REMARK   78  A    between atoms: _194  and  _195
REMARK   79  A    between atoms: _194  and  _197
REMARK   80  A    between atoms: _197  and  _198
REMARK   81  A    between atoms: _198  and  _199
REMARK   82  A    between atoms: _202  and  _204
REMARK   83  A    between atoms: _204  and  _205
REMARK   84  A    between atoms: _204  and  _207
REMARK   85  A    between atoms: _210  and  _212
REMARK   86  A    between atoms: _212  and  _213
REMARK   87  A    between atoms: _212  and  _215
REMARK   88  A    between atoms: _215  and  _216
REMARK   89  A    between atoms: _216  and  _217
REMARK   90  A    between atoms: _222  and  _224
REMARK   91  A    between atoms: _224  and  _225
REMARK   92  A    between atoms: _224  and  _227
REMARK   93  A    between atoms: _227  and  _228
REMARK   94  A    between atoms: _234  and  _236
REMARK   95  A    between atoms: _236  and  _237
REMARK   96  A    between atoms: _236  and  _239
REMARK   97  A    between atoms: _239  and  _240
REMARK   98  A    between atoms: _243  and  _245
REMARK   99  A    between atoms: _245  and  _246
REMARK  100  A    between atoms: _245  and  _248
REMARK  101  A    between atoms: _248  and  _249
REMARK  102  A    between atoms: _252  and  _254
REMARK  103  A    between atoms: _254  and  _255
REMARK  104  A    between atoms: _254  and  _257
REMARK  105  A    between atoms: _257  and  _258
REMARK  106  A    between atoms: _258  and  _259
REMARK  107  A    between atoms: _262  and  _264
REMARK  108  A    between atoms: _264  and  _265
REMARK  109  A    between atoms: _267  and  _269
REMARK  110  A    between atoms: _269  and  _270
REMARK  111  A    between atoms: _269  and  _272
REMARK  112  A    between atoms: _272  and  _273
REMARK  113  A    between atoms: _276  and  _278
REMARK  114  A    between atoms: _278  and  _279
REMARK  115  A    between atoms: _278  and  _281
REMARK  116  A    between atoms: _281  and  _282
REMARK  117  A    between atoms: _285  and  _287
REMARK  118  A    between atoms: _287  and  _288
REMARK  119  A    between atoms: _287  and  _290
REMARK  120  A    between atoms: _290  and  _291
REMARK  121  A    between atoms: _291  and  _292
REMARK  122  A    between atoms: _294  and  _296
REMARK  123  A    between atoms: _296  and  _297
REMARK  124  A    between atoms: _296  and  _299
REMARK  125  A    between atoms: _299  and  _300
REMARK  126  A    between atoms: _300  and  _301
REMARK  127  A    between atoms: _301  and  _302
REMARK  128  A    between atoms: _302  and  _303
REMARK  129  A    between atoms: _307  and  _309
REMARK  130  A    between atoms: _309  and  _310
REMARK  131  A    between atoms: _309  and  _312
REMARK  132  A    between atoms: _312  and  _313
REMARK  133  A    between atoms: _319  and  _321
REMARK  134  A    between atoms: _321  and  _322
REMARK  135  A    between atoms: _321  and  _324
REMARK  136  A    between atoms: _327  and  _329
REMARK  137  A    between atoms: _329  and  _330
REMARK  138  A    between atoms: _329  and  _332
REMARK  139  A    between atoms: _332  and  _333
REMARK  140  A    between atoms: _336  and  _338
REMARK  141  A    between atoms: _338  and  _339
REMARK  142  A    between atoms: _338  and  _341
REMARK  143  A    between atoms: _341  and  _342
REMARK  144  A    between atoms: _344  and  _346
REMARK  145  A    between atoms: _346  and  _347
REMARK  146  A    between atoms: _346  and  _349
REMARK  147  A    between atoms: _349  and  _350
REMARK  148  A    between atoms: _353  and  _355
REMARK  149  A    between atoms: _355  and  _356
REMARK  150  A    between atoms: _358  and  _360
REMARK  151  A    between atoms: _360  and  _361
REMARK  152  A    between atoms: _360  and  _363
REMARK  153  A    between atoms: _363  and  _364
REMARK  154  A    between atoms: _367  and  _369
REMARK  155  A    between atoms: _369  and  _370
REMARK  156  A    between atoms: _369  and  _372
REMARK  157  A    between atoms: _375  and  _376
REMARK  158  A    between atoms: _381  and  _383
REMARK  159  A    between atoms: _383  and  _384
REMARK  160  A    between atoms: _383  and  _386
REMARK  161  A    between atoms: _386  and  _387
REMARK  162  A    between atoms: _390  and  _392
REMARK  163  A    between atoms: _392  and  _393
REMARK  164  A    between atoms: _392  and  _395
REMARK  165  A    between atoms: _398  and  _400
REMARK  166  A    between atoms: _400  and  _401
REMARK  167  A    between atoms: _400  and  _403
REMARK  168  A    between atoms: _406  and  _408
REMARK  169  A    between atoms: _408  and  _409
REMARK  170  A    between atoms: _408  and  _411
REMARK  171  A    between atoms: _411  and  _412
REMARK  172  A    between atoms: _416  and  _417
REMARK  173  A    between atoms: _422  and  _424
REMARK  174  A    between atoms: _424  and  _425
REMARK  175  A    between atoms: _424  and  _427
REMARK  176  A    between atoms: _427  and  _428
REMARK  177  A    between atoms: _433  and  _434
REMARK  178  A    between atoms: _436  and  _438
REMARK  179  A    between atoms: _438  and  _439
REMARK  180  A    between atoms: _438  and  _441
REMARK  181  A    between atoms: _441  and  _442
REMARK  182  A    between atoms: _442  and  _443
REMARK  183  A    between atoms: _445  and  _447
REMARK  184  A    between atoms: _447  and  _448
REMARK  185  A    between atoms: _447  and  _450
REMARK  186  A    between atoms: _450  and  _451
REMARK  187  A    between atoms: _451  and  _452
REMARK  188  A    between atoms: _452  and  _453
REMARK  189  A    between atoms: _453  and  _454
REMARK  190  A    between atoms: _458  and  _460
REMARK  191  A    between atoms: _460  and  _461
REMARK  192  A    between atoms: _460  and  _463
REMARK  193  A    between atoms: _463  and  _464
REMARK  194  A    between atoms: _469  and  _471
REMARK  195  A    between atoms: _471  and  _472
REMARK  196  A    between atoms: _474  and  _476
REMARK  197  A    between atoms: _476  and  _477
REMARK  198  A    between atoms: _476  and  _479
REMARK  199  A    between atoms: _479  and  _480
REMARK  200  A    between atoms: _483  and  _485
REMARK  201  A    between atoms: _485  and  _486
REMARK  202  A    between atoms: _485  and  _488
REMARK  203  A    between atoms: _488  and  _489
REMARK  204  A    between atoms: _494  and  _496
REMARK  205  A    between atoms: _496  and  _497
REMARK  206  A    between atoms: _496  and  _499
REMARK  207  A    between atoms: _499  and  _500
REMARK  208  A    between atoms: _503  and  _505
REMARK  209  A    between atoms: _505  and  _506
REMARK  210  A    between atoms: _505  and  _508
REMARK  211  A    between atoms: _508  and  _509
REMARK  212  A    between atoms: _515  and  _517
REMARK  213  A    between atoms: _517  and  _518
REMARK  214  A    between atoms: _517  and  _520
REMARK  215  A    between atoms: _523  and  _525
REMARK  216  A    between atoms: _525  and  _526
REMARK  217  A    between atoms: _525  and  _528
REMARK  218  A    between atoms: _528  and  _529
REMARK  219  A    between atoms: _534  and  _536
REMARK  220  A    between atoms: _536  and  _537
REMARK  221  A    between atoms: _536  and  _539
REMARK  222  A    between atoms: _539  and  _540
REMARK  223  A    between atoms: _540  and  _541
REMARK  224  A    between atoms: _541  and  _542
REMARK  225  A    between atoms: _551  and  _553
REMARK  226  A    between atoms: _553  and  _554
REMARK  227  A    between atoms: _553  and  _556
REMARK  228  A    between atoms: _556  and  _557
REMARK  229  A    between atoms: _562  and  _564
REMARK  230  A    between atoms: _564  and  _565
REMARK  231  A    between atoms: _564  and  _567
REMARK  232  A    between atoms: _569  and  _571
REMARK  233  A    between atoms: _571  and  _572
REMARK  234  A    between atoms: _571  and  _574
REMARK  235  A    between atoms: _574  and  _575
REMARK  236  A    between atoms: _575  and  _576
REMARK  237  A    between atoms: _578  and  _580
REMARK  238  A    between atoms: _580  and  _581
REMARK  239  A    between atoms: _580  and  _583
REMARK  240  A    between atoms: _583  and  _584
REMARK  241  A    between atoms: _587  and  _589
REMARK  242  A    between atoms: _589  and  _590
REMARK  243  A    between atoms: _589  and  _592
REMARK  244  A    between atoms: _592  and  _593
REMARK  245  A    between atoms: _593  and  _594
REMARK  246  A    between atoms: _594  and  _595
REMARK  247  A    between atoms: _595  and  _596
REMARK  248  A    between atoms: _600  and  _602
REMARK  249  A    between atoms: _602  and  _603
REMARK  250  A    between atoms: _602  and  _605
REMARK  251  A    between atoms: _608  and  _610
REMARK  252  A    between atoms: _610  and  _611
REMARK  253  A    between atoms: _614  and  _616
REMARK  254  A    between atoms: _616  and  _617
REMARK  255  A    between atoms: _616  and  _619
REMARK  256  A    between atoms: _619  and  _620
REMARK  257  A    between atoms: _623  and  _625
REMARK  258  A    between atoms: _625  and  _626
REMARK  259  A    between atoms: _625  and  _628
REMARK  260  A    between atoms: _628  and  _629
REMARK  261  A    between atoms: _635  and  _637
REMARK  262  A    between atoms: _637  and  _638
REMARK                            x       y       z     vdW  Elec       q    Type
REMARK                         _______ _______ _______ _____ _____    ______ ____
ROOT
ATOM      1  CA  GLU A   5      28.221  -0.100   6.471  0.00  0.00    +0.149 C 
ENDROOT
BRANCH   1   2
ATOM      2  C   GLU A   5      29.164  -0.321   7.651  0.00  0.00    +0.241 C 
ATOM      3  O   GLU A   5      29.284   0.540   8.524  0.00  0.00    -0.273 OA
ATOM      4  N   GLY A   6      29.839  -1.470   7.653  0.00  0.00    -0.295 N 
ATOM      5  H   GLY A   6      29.633  -2.170   6.912  0.00  0.00    +0.150 HD
BRANCH   4   6
ATOM      6  CA  GLY A   6      30.856  -1.789   8.652  0.00  0.00    +0.176 C 
BRANCH   6   7
ATOM      7  C   GLY A   6      31.987  -0.780   8.664  0.00  0.00    +0.243 C 
ATOM      8  O   GLY A   6      32.418  -0.330   9.728  0.00  0.00    -0.273 OA
ATOM      9  N   ILE A   7      32.460  -0.416   7.473  0.00  0.00    -0.297 N 
ATOM     10  H   ILE A   7      32.069  -0.867   6.621  0.00  0.00    +0.150 HD
BRANCH   9  11
ATOM     11  CA  ILE A   7      33.511   0.597   7.316  0.00  0.00    +0.149 C 
BRANCH  11  12
ATOM     12  C   ILE A   7      33.078   1.962   7.894  0.00  0.00    +0.241 C 
ATOM     13  O   ILE A   7      33.829   2.597   8.635  0.00  0.00    -0.273 OA
ATOM     14  N   ILE A   8      31.864   2.394   7.561  0.00  0.00    -0.297 N 
ATOM     15  H   ILE A   8      31.283   1.814   6.922  0.00  0.00    +0.150 HD
BRANCH  14  16
ATOM     16  CA  ILE A   8      31.312   3.665   8.064  0.00  0.00    +0.149 C 
BRANCH  16  17
ATOM     17  C   ILE A   8      31.196   3.690   9.595  0.00  0.00    +0.241 C 
ATOM     18  O   ILE A   8      31.651   4.639  10.250  0.00  0.00    -0.273 OA
ATOM     19  N   MET A   9      30.588   2.649  10.158  0.00  0.00    -0.297 N 
ATOM     20  H   MET A   9      30.285   1.853   9.561  0.00  0.00    +0.150 HD
BRANCH  19  21
ATOM     21  CA  MET A   9      30.336   2.599  11.598  0.00  0.00    +0.149 C 
BRANCH  21  22
ATOM     22  C   MET A   9      31.624   2.519  12.408  0.00  0.00    +0.241 C 
ATOM     23  O   MET A   9      31.732   3.150  13.462  0.00  0.00    -0.273 OA
ATOM     24  N   LYS A  10      32.592   1.748  11.912  0.00  0.00    -0.298 N 
ATOM     25  H   LYS A  10      32.418   1.231  11.026  0.00  0.00    +0.150 HD
BRANCH  24  26
ATOM     26  CA  LYS A  10      33.894   1.603  12.572  0.00  0.00    +0.137 C 
BRANCH  26  27
ATOM     27  C   LYS A  10      34.619   2.939  12.746  0.00  0.00    +0.227 C 
ATOM     28  O   LYS A  10      35.348   3.122  13.719  0.00  0.00    -0.286 OA
ENDBRANCH  26  27
BRANCH  26  29
ATOM     29  CB  LYS A  10      34.785   0.618  11.802  0.00  0.00    +0.028 C 
BRANCH  29  30
ATOM     30  CG  LYS A  10      36.072   0.209  12.518  0.00  0.00    -0.000 C 
BRANCH  30  31
ATOM     31  CD  LYS A  10      35.802  -0.742  13.678  0.00  0.00    -0.024 C 
BRANCH  31  32
ATOM     32  CE  LYS A  10      37.099  -1.286  14.265  0.00  0.00    -0.086 C 
BRANCH  32  33
ATOM     33  NZ  LYS A  10      37.760  -0.350  15.211  0.00  0.00    +0.380 N 
ATOM     34  HZ1 LYS A  10      37.118  -0.150  16.005  0.00  0.00    -0.089 HD
ATOM     35  HZ2 LYS A  10      38.634  -0.783  15.571  0.00  0.00    -0.089 HD
ATOM     36  HZ3 LYS A  10      37.989   0.536  14.717  0.00  0.00    -0.089 HD
ENDBRANCH  32  33
ENDBRANCH  31  32
ENDBRANCH  30  31
ENDBRANCH  29  30
ENDBRANCH  26  29
ENDBRANCH  24  26
ENDBRANCH  21  22
BRANCH  21  37
ATOM     37  CB  MET A   9      29.414   1.435  11.951  0.00  0.00    +0.041 C 
BRANCH  37  38
ATOM     38  CG  MET A   9      28.867   1.507  13.371  0.00  0.00    +0.060 C 
BRANCH  38  39
ATOM     39  SD  MET A   9      27.784   0.126  13.703  0.00  0.00    -0.139 S 
ATOM     40  CE  MET A   9      27.270   0.469  15.389  0.00  0.00    +0.069 C 
ENDBRANCH  38  39
ENDBRANCH  37  38
ENDBRANCH  21  37
ENDBRANCH  19  21
ENDBRANCH  16  17
BRANCH  16  41
ATOM     41  CB  ILE A   8      29.927   3.969   7.431  0.00  0.00    +0.027 C 
ATOM     42  CG2 ILE A   8      29.230   5.122   8.155  0.00  0.00    +0.002 C 
BRANCH  41  43
ATOM     43  CG1 ILE A   8      30.072   4.301   5.942  0.00  0.00    +0.002 C 
ATOM     44  CD1 ILE A   8      28.803   4.060   5.142  0.00  0.00    +0.000 C 
ENDBRANCH  41  43
ENDBRANCH  16  41
ENDBRANCH  14  16
ENDBRANCH  11  12
BRANCH  11  45
ATOM     45  CB  ILE A   7      33.937   0.729   5.820  0.00  0.00    +0.027 C 
ATOM     46  CG2 ILE A   7      34.746   1.992   5.593  0.00  0.00    +0.002 C 
BRANCH  45  47
ATOM     47  CG1 ILE A   7      34.747  -0.498   5.374  0.00  0.00    +0.002 C 
ATOM     48  CD1 ILE A   7      34.913  -0.636   3.868  0.00  0.00    +0.000 C 
ENDBRANCH  45  47
ENDBRANCH  11  45
ENDBRANCH   9  11
ENDBRANCH   6   7
ENDBRANCH   4   6
ENDBRANCH   1   2
BRANCH   1  51
ATOM     49  C   THR A   4      29.986   0.065   4.793  0.00  0.00    +0.243 C 
ATOM     50  O   THR A   4      30.523   1.009   5.370  0.00  0.00    -0.273 OA
ATOM     51  N   GLU A   5      28.859  -0.498   5.217  0.00  0.00    -0.297 N 
ATOM     52  H   GLU A   5      28.418  -1.243   4.640  0.00  0.00    +0.150 HD
BRANCH  49  53
ATOM     53  CA  THR A   4      30.613  -0.537   3.539  0.00  0.00    +0.176 C 
BRANCH  53  56
ATOM     54  C   LEU A   3      31.256  -2.740   4.426  0.00  0.00    +0.241 C 
ATOM     55  O   LEU A   3      32.004  -2.263   5.279  0.00  0.00    -0.273 OA
ATOM     56  N   THR A   4      30.549  -2.001   3.572  0.00  0.00    -0.295 N 
ATOM     57  H   THR A   4      29.923  -2.485   2.898  0.00  0.00    +0.150 HD
BRANCH  54  58
ATOM     58  CA  LEU A   3      31.100  -4.256   4.289  0.00  0.00    +0.149 C 
BRANCH  58  61
ATOM     59  C   PHE A   2      28.731  -4.437   4.914  0.00  0.00    +0.241 C 
ATOM     60  O   PHE A   2      28.911  -3.906   6.016  0.00  0.00    -0.273 OA
ATOM     61  N   LEU A   3      29.712  -4.652   4.037  0.00  0.00    -0.297 N 
ATOM     62  H   LEU A   3      29.483  -5.120   3.137  0.00  0.00    +0.150 HD
BRANCH  59  63
ATOM     63  CA  PHE A   2      27.327  -4.869   4.486  0.00  0.00    +0.153 C 
BRANCH  63  66
ATOM     64  C   GLN A   1      27.022  -3.279   2.616  0.00  0.00    +0.238 C 
ATOM     65  O   GLN A   1      27.192  -2.282   3.321  0.00  0.00    -0.274 OA
ATOM     66  N   PHE A   2      27.043  -4.525   3.089  0.00  0.00    -0.297 N 
ATOM     67  H   PHE A   2      26.846  -5.302   2.426  0.00  0.00    +0.150 HD
BRANCH  64  68
ATOM     68  CA  GLN A   1      26.768  -3.136   1.106  0.00  0.00    +0.145 C 
BRANCH  68  69
ATOM     69  N   GLN A   1      27.478  -4.166   0.341  0.00  0.00    -0.238 NA
ATOM     70  H   GLN A   1      26.921  -4.833  -0.230  0.00  0.00    +0.142 HD
ENDBRANCH  68  69
BRANCH  68  71
ATOM     71  CB  GLN A   1      25.265  -3.192   0.796  0.00  0.00    +0.036 C 
BRANCH  71  72
ATOM     72  CG  GLN A   1      24.409  -2.179   1.563  0.00  0.00    +0.087 C 
BRANCH  72  73
ATOM     73  CD  GLN A   1      22.937  -2.186   1.151  0.00  0.00    +0.219 C 
ATOM     74  NE2 GLN A   1      22.050  -2.294   2.140  0.00  0.00    -0.329 N 
ATOM     75 HE21 GLN A   1      22.376  -2.384   3.123  0.00  0.00    +0.145 HD
ATOM     76 HE22 GLN A   1      21.032  -2.289   1.928  0.00  0.00    +0.145 HD
ATOM     77  OE1 GLN A   1      22.602  -2.077  -0.037  0.00  0.00    -0.275 OA
ENDBRANCH  72  73
ENDBRANCH  71  72
ENDBRANCH  68  71
ENDBRANCH  64  68
ENDBRANCH  63  66
BRANCH  63  78
ATOM     78  CB  PHE A   2      27.097  -6.380   4.707  0.00  0.00    +0.055 C 
BRANCH  78  79
ATOM     79  CG  PHE A   2      27.841  -6.964   5.890  0.00  0.00    -0.020 A 
ATOM     80  CD2 PHE A   2      27.346  -6.828   7.180  0.00  0.00    -0.004 A 
ATOM     81  CE2 PHE A   2      28.029  -7.373   8.272  0.00  0.00    -0.000 A 
ATOM     82  CZ  PHE A   2      29.210  -8.070   8.071  0.00  0.00    -0.000 A 
ATOM     83  CE1 PHE A   2      29.714  -8.220   6.786  0.00  0.00    -0.000 A 
ATOM     84  CD1 PHE A   2      29.026  -7.672   5.703  0.00  0.00    -0.004 A 
ENDBRANCH  78  79
ENDBRANCH  63  78
ENDBRANCH  59  63
ENDBRANCH  58  61
BRANCH  58  85
ATOM     85  CB  LEU A   3      32.029  -4.757   3.174  0.00  0.00    +0.029 C 
BRANCH  85  86
ATOM     86  CG  LEU A   3      32.238  -6.257   2.936  0.00  0.00    +0.002 C 
ATOM     87  CD2 LEU A   3      32.758  -6.956   4.180  0.00  0.00    +0.000 C 
ATOM     88  CD1 LEU A   3      33.193  -6.474   1.767  0.00  0.00    +0.000 C 
ENDBRANCH  85  86
ENDBRANCH  58  85
ENDBRANCH  54  58
ENDBRANCH  53  56
BRANCH  53  89
ATOM     89  CB  THR A   4      29.929   0.020   2.263  0.00  0.00    +0.137 C 
ATOM     90  CG2 THR A   4      30.043   1.534   2.184  0.00  0.00    +0.034 C 
BRANCH  89  91
ATOM     91  OG1 THR A   4      30.549  -0.560   1.107  0.00  0.00    -0.382 OA
ATOM     92  HG1 THR A   4      30.447  -1.544   1.138  0.00  0.00    +0.210 HD
ENDBRANCH  89  91
ENDBRANCH  53  89
ENDBRANCH  49  53
ENDBRANCH   1  51
BRANCH   1  93
ATOM     93  CB  GLU A   5      26.921  -0.869   6.672  0.00  0.00    +0.041 C 
BRANCH  93  94
ATOM     94  CG  GLU A   5      25.788  -0.376   5.788  0.00  0.00    +0.116 C 
BRANCH  94  95
ATOM     95  CD  GLU A   5      24.614  -1.330   5.743  0.00  0.00    +0.365 C 
ATOM     96  OE2 GLU A   5      24.799  -2.534   6.024  0.00  0.00    -0.246 OA
ATOM     97  OE1 GLU A   5      23.500  -0.870   5.415  0.00  0.00    -0.246 OA
ENDBRANCH  94  95
ENDBRANCH  93  94
ENDBRANCH   1  93
TORSDOF 44
REMARK  Name = ../refined-set-2016/3u6i/3u6i_pocket.pdb
REMARK  262 active torsions:
REMARK  status: ('A' for Active; 'I' for Inactive)
REMARK    1  A    between atoms: _1  and  _3
REMARK    2  A    between atoms: _3  and  _4
REMARK    3  A    between atoms: _3  and  _6
REMARK    4  A    between atoms: _9  and  _11
REMARK    5  A    between atoms: _11  and  _12
REMARK    6  A    between atoms: _11  and  _14
REMARK    7  A    between atoms: _17  and  _19
REMARK    8  A    between atoms: _19  and  _20
REMARK    9  A    between atoms: _19  and  _22
REMARK   10  A    between atoms: _22  and  _23
REMARK   11  A    between atoms: _26  and  _28
REMARK   12  A    between atoms: _28  and  _29
REMARK   13  A    between atoms: _31  and  _33
REMARK   14  A    between atoms: _33  and  _34
REMARK   15  A    between atoms: _33  and  _36
REMARK   16  A    between atoms: _36  and  _37
REMARK   17  A    between atoms: _37  and  _38
REMARK   18  A    between atoms: _38  and  _39
REMARK   19  A    between atoms: _48  and  _50
REMARK   20  A    between atoms: _50  and  _51
REMARK   21  A    between atoms: _53  and  _55
REMARK   22  A    between atoms: _55  and  _56
REMARK   23  A    between atoms: _55  and  _58
REMARK   24  A    between atoms: _58  and  _59
REMARK   25  A    between atoms: _64  and  _66
REMARK   26  A    between atoms: _66  and  _67
REMARK   27  A    between atoms: _66  and  _69
REMARK   28  A    between atoms: _69  and  _70
REMARK   29  A    between atoms: _76  and  _78
REMARK   30  A    between atoms: _78  and  _79
REMARK   31  A    between atoms: _81  and  _83
REMARK   32  A    between atoms: _83  and  _84
REMARK   33  A    between atoms: _83  and  _86
REMARK   34  A    between atoms: _88  and  _90
REMARK   35  A    between atoms: _90  and  _91
REMARK   36  A    between atoms: _90  and  _93
REMARK   37  A    between atoms: _96  and  _98
REMARK   38  A    between atoms: _98  and  _99
REMARK   39  A    between atoms: _98  and  _101
REMARK   40  A    between atoms: _101  and  _102
REMARK   41  A    between atoms: _107  and  _108
REMARK   42  A    between atoms: _110  and  _112
REMARK   43  A    between atoms: _112  and  _113
REMARK   44  A    between atoms: _112  and  _115
REMARK   45  A    between atoms: _115  and  _116
REMARK   46  A    between atoms: _121  and  _123
REMARK   47  A    between atoms: _123  and  _124
REMARK   48  A    between atoms: _123  and  _126
REMARK   49  A    between atoms: _126  and  _127
REMARK   50  A    between atoms: _132  and  _134
REMARK   51  A    between atoms: _134  and  _135
REMARK   52  A    between atoms: _134  and  _137
REMARK   53  A    between atoms: _139  and  _141
REMARK   54  A    between atoms: _141  and  _142
REMARK   55  A    between atoms: _145  and  _147
REMARK   56  A    between atoms: _147  and  _148
REMARK   57  A    between atoms: _147  and  _150
REMARK   58  A    between atoms: _153  and  _155
REMARK   59  A    between atoms: _155  and  _156
REMARK   60  A    between atoms: _155  and  _158
REMARK   61  A    between atoms: _158  and  _159
REMARK   62  A    between atoms: _159  and  _160
REMARK   63  A    between atoms: _160  and  _161
REMARK   64  A    between atoms: _161  and  _162
REMARK   65  A    between atoms: _166  and  _168
REMARK   66  A    between atoms: _168  and  _169
REMARK   67  A    between atoms: _168  and  _171
REMARK   68  A    between atoms: _171  and  _172
REMARK   69  A    between atoms: _174  and  _176
REMARK   70  A    between atoms: _176  and  _177
REMARK   71  A    between atoms: _176  and  _179
REMARK   72  A    between atoms: _179  and  _180
REMARK   73  A    between atoms: _183  and  _185
REMARK   74  A    between atoms: _185  and  _186
REMARK   75  A    between atoms: _185  and  _188
REMARK   76  A    between atoms: _188  and  _189
REMARK   77  A    between atoms: _192  and  _194
REMARK   78  A    between atoms: _194  and  _195
REMARK   79  A    between atoms: _194  and  _197
REMARK   80  A    between atoms: _197  and  _198
REMARK   81  A    between atoms: _198  and  _199
REMARK   82  A    between atoms: _202  and  _204
REMARK   83  A    between atoms: _204  and  _205
REMARK   84  A    between atoms: _204  and  _207
REMARK   85  A    between atoms: _210  and  _212
REMARK   86  A    between atoms: _212  and  _213
REMARK   87  A    between atoms: _212  and  _215
REMARK   88  A    between atoms: _215  and  _216
REMARK   89  A    between atoms: _216  and  _217
REMARK   90  A    between atoms: _222  and  _224
REMARK   91  A    between atoms: _224  and  _225
REMARK   92  A    between atoms: _224  and  _227
REMARK   93  A    between atoms: _227  and  _228
REMARK   94  A    between atoms: _234  and  _236
REMARK   95  A    between atoms: _236  and  _237
REMARK   96  A    between atoms: _236  and  _239
REMARK   97  A    between atoms: _239  and  _240
REMARK   98  A    between atoms: _243  and  _245
REMARK   99  A    between atoms: _245  and  _246
REMARK  100  A    between atoms: _245  and  _248
REMARK  101  A    between atoms: _248  and  _249
REMARK  102  A    between atoms: _252  and  _254
REMARK  103  A    between atoms: _254  and  _255
REMARK  104  A    between atoms: _254  and  _257
REMARK  105  A    between atoms: _257  and  _258
REMARK  106  A    between atoms: _258  and  _259
REMARK  107  A    between atoms: _262  and  _264
REMARK  108  A    between atoms: _264  and  _265
REMARK  109  A    between atoms: _267  and  _269
REMARK  110  A    between atoms: _269  and  _270
REMARK  111  A    between atoms: _269  and  _272
REMARK  112  A    between atoms: _272  and  _273
REMARK  113  A    between atoms: _276  and  _278
REMARK  114  A    between atoms: _278  and  _279
REMARK  115  A    between atoms: _278  and  _281
REMARK  116  A    between atoms: _281  and  _282
REMARK  117  A    between atoms: _285  and  _287
REMARK  118  A    between atoms: _287  and  _288
REMARK  119  A    between atoms: _287  and  _290
REMARK  120  A    between atoms: _290  and  _291
REMARK  121  A    between atoms: _291  and  _292
REMARK  122  A    between atoms: _294  and  _296
REMARK  123  A    between atoms: _296  and  _297
REMARK  124  A    between atoms: _296  and  _299
REMARK  125  A    between atoms: _299  and  _300
REMARK  126  A    between atoms: _300  and  _301
REMARK  127  A    between atoms: _301  and  _302
REMARK  128  A    between atoms: _302  and  _303
REMARK  129  A    between atoms: _307  and  _309
REMARK  130  A    between atoms: _309  and  _310
REMARK  131  A    between atoms: _309  and  _312
REMARK  132  A    between atoms: _312  and  _313
REMARK  133  A    between atoms: _319  and  _321
REMARK  134  A    between atoms: _321  and  _322
REMARK  135  A    between atoms: _321  and  _324
REMARK  136  A    between atoms: _327  and  _329
REMARK  137  A    between atoms: _329  and  _330
REMARK  138  A    between atoms: _329  and  _332
REMARK  139  A    between atoms: _332  and  _333
REMARK  140  A    between atoms: _336  and  _338
REMARK  141  A    between atoms: _338  and  _339
REMARK  142  A    between atoms: _338  and  _341
REMARK  143  A    between atoms: _341  and  _342
REMARK  144  A    between atoms: _344  and  _346
REMARK  145  A    between atoms: _346  and  _347
REMARK  146  A    between atoms: _346  and  _349
REMARK  147  A    between atoms: _349  and  _350
REMARK  148  A    between atoms: _353  and  _355
REMARK  149  A    between atoms: _355  and  _356
REMARK  150  A    between atoms: _358  and  _360
REMARK  151  A    between atoms: _360  and  _361
REMARK  152  A    between atoms: _360  and  _363
REMARK  153  A    between atoms: _363  and  _364
REMARK  154  A    between atoms: _367  and  _369
REMARK  155  A    between atoms: _369  and  _370
REMARK  156  A    between atoms: _369  and  _372
REMARK  157  A    between atoms: _375  and  _376
REMARK  158  A    between atoms: _381  and  _383
REMARK  159  A    between atoms: _383  and  _384
REMARK  160  A    between atoms: _383  and  _386
REMARK  161  A    between atoms: _386  and  _387
REMARK  162  A    between atoms: _390  and  _392
REMARK  163  A    between atoms: _392  and  _393
REMARK  164  A    between atoms: _392  and  _395
REMARK  165  A    between atoms: _398  and  _400
REMARK  166  A    between atoms: _400  and  _401
REMARK  167  A    between atoms: _400  and  _403
REMARK  168  A    between atoms: _406  and  _408
REMARK  169  A    between atoms: _408  and  _409
REMARK  170  A    between atoms: _408  and  _411
REMARK  171  A    between atoms: _411  and  _412
REMARK  172  A    between atoms: _416  and  _417
REMARK  173  A    between atoms: _422  and  _424
REMARK  174  A    between atoms: _424  and  _425
REMARK  175  A    between atoms: _424  and  _427
REMARK  176  A    between atoms: _427  and  _428
REMARK  177  A    between atoms: _433  and  _434
REMARK  178  A    between atoms: _436  and  _438
REMARK  179  A    between atoms: _438  and  _439
REMARK  180  A    between atoms: _438  and  _441
REMARK  181  A    between atoms: _441  and  _442
REMARK  182  A    between atoms: _442  and  _443
REMARK  183  A    between atoms: _445  and  _447
REMARK  184  A    between atoms: _447  and  _448
REMARK  185  A    between atoms: _447  and  _450
REMARK  186  A    between atoms: _450  and  _451
REMARK  187  A    between atoms: _451  and  _452
REMARK  188  A    between atoms: _452  and  _453
REMARK  189  A    between atoms: _453  and  _454
REMARK  190  A    between atoms: _458  and  _460
REMARK  191  A    between atoms: _460  and  _461
REMARK  192  A    between atoms: _460  and  _463
REMARK  193  A    between atoms: _463  and  _464
REMARK  194  A    between atoms: _469  and  _471
REMARK  195  A    between atoms: _471  and  _472
REMARK  196  A    between atoms: _474  and  _476
REMARK  197  A    between atoms: _476  and  _477
REMARK  198  A    between atoms: _476  and  _479
REMARK  199  A    between atoms: _479  and  _480
REMARK  200  A    between atoms: _483  and  _485
REMARK  201  A    between atoms: _485  and  _486
REMARK  202  A    between atoms: _485  and  _488
REMARK  203  A    between atoms: _488  and  _489
REMARK  204  A    between atoms: _494  and  _496
REMARK  205  A    between atoms: _496  and  _497
REMARK  206  A    between atoms: _496  and  _499
REMARK  207  A    between atoms: _499  and  _500
REMARK  208  A    between atoms: _503  and  _505
REMARK  209  A    between atoms: _505  and  _506
REMARK  210  A    between atoms: _505  and  _508
REMARK  211  A    between atoms: _508  and  _509
REMARK  212  A    between atoms: _515  and  _517
REMARK  213  A    between atoms: _517  and  _518
REMARK  214  A    between atoms: _517  and  _520
REMARK  215  A    between atoms: _523  and  _525
REMARK  216  A    between atoms: _525  and  _526
REMARK  217  A    between atoms: _525  and  _528
REMARK  218  A    between atoms: _528  and  _529
REMARK  219  A    between atoms: _534  and  _536
REMARK  220  A    between atoms: _536  and  _537
REMARK  221  A    between atoms: _536  and  _539
REMARK  222  A    between atoms: _539  and  _540
REMARK  223  A    between atoms: _540  and  _541
REMARK  224  A    between atoms: _541  and  _542
REMARK  225  A    between atoms: _551  and  _553
REMARK  226  A    between atoms: _553  and  _554
REMARK  227  A    between atoms: _553  and  _556
REMARK  228  A    between atoms: _556  and  _557
REMARK  229  A    between atoms: _562  and  _564
REMARK  230  A    between atoms: _564  and  _565
REMARK  231  A    between atoms: _564  and  _567
REMARK  232  A    between atoms: _569  and  _571
REMARK  233  A    between atoms: _571  and  _572
REMARK  234  A    between atoms: _571  and  _574
REMARK  235  A    between atoms: _574  and  _575
REMARK  236  A    between atoms: _575  and  _576
REMARK  237  A    between atoms: _578  and  _580
REMARK  238  A    between atoms: _580  and  _581
REMARK  239  A    between atoms: _580  and  _583
REMARK  240  A    between atoms: _583  and  _584
REMARK  241  A    between atoms: _587  and  _589
REMARK  242  A    between atoms: _589  and  _590
REMARK  243  A    between atoms: _589  and  _592
REMARK  244  A    between atoms: _592  and  _593
REMARK  245  A    between atoms: _593  and  _594
REMARK  246  A    between atoms: _594  and  _595
REMARK  247  A    between atoms: _595  and  _596
REMARK  248  A    between atoms: _600  and  _602
REMARK  249  A    between atoms: _602  and  _603
REMARK  250  A    between atoms: _602  and  _605
REMARK  251  A    between atoms: _608  and  _610
REMARK  252  A    between atoms: _610  and  _611
REMARK  253  A    between atoms: _614  and  _616
REMARK  254  A    between atoms: _616  and  _617
REMARK  255  A    between atoms: _616  and  _619
REMARK  256  A    between atoms: _619  and  _620
REMARK  257  A    between atoms: _623  and  _625
REMARK  258  A    between atoms: _625  and  _626
REMARK  259  A    between atoms: _625  and  _628
REMARK  260  A    between atoms: _628  and  _629
REMARK  261  A    between atoms: _635  and  _637
REMARK  262  A    between atoms: _637  and  _638
REMARK                            x       y       z     vdW  Elec       q    Type
REMARK                         _______ _______ _______ _____ _____    ______ ____
ROOT
ATOM      1  CB  PHE A   1      30.976   6.479  14.205  0.00  0.00    +0.051 C 
ENDROOT
BRANCH   1   2
ATOM      2  CG  PHE A   1      30.254   6.921  12.952  0.00  0.00    -0.020 A 
ATOM      3  CD2 PHE A   1      28.999   6.407  12.650  0.00  0.00    -0.004 A 
ATOM      4  CE2 PHE A   1      28.318   6.813  11.503  0.00  0.00    -0.000 A 
ATOM      5  CZ  PHE A   1      28.888   7.747  10.648  0.00  0.00    -0.000 A 
ATOM      6  CE1 PHE A   1      30.139   8.272  10.936  0.00  0.00    -0.000 A 
ATOM      7  CD1 PHE A   1      30.813   7.863  12.088  0.00  0.00    -0.004 A 
ENDBRANCH   1   2
BRANCH   1   8
ATOM      8  CA  PHE A   1      32.486   6.744  14.186  0.00  0.00    +0.137 C 
BRANCH   8   9
ATOM      9  N   PHE A   1      33.159   5.912  13.192  0.00  0.00    -0.239 NA
ATOM     10  H   PHE A   1      32.633   5.148  12.722  0.00  0.00    +0.142 HD
ENDBRANCH   8   9
BRANCH   8  11
ATOM     11  C   PHE A   1      33.087   6.524  15.567  0.00  0.00    +0.224 C 
ATOM     12  O   PHE A   1      33.423   5.395  15.931  0.00  0.00    -0.287 OA
ENDBRANCH   8  11
ENDBRANCH   1   8
TORSDOF 4
REMARK  Name = ../refined-set-2016/3u6i/3u6i_pocket.pdb
REMARK  262 active torsions:
REMARK  status: ('A' for Active; 'I' for Inactive)
REMARK    1  A    between atoms: _1  and  _3
REMARK    2  A    between atoms: _3  and  _4
REMARK    3  A    between atoms: _3  and  _6
REMARK    4  A    between atoms: _9  and  _11
REMARK    5  A    between atoms: _11  and  _12
REMARK    6  A    between atoms: _11  and  _14
REMARK    7  A    between atoms: _17  and  _19
REMARK    8  A    between atoms: _19  and  _20
REMARK    9  A    between atoms: _19  and  _22
REMARK   10  A    between atoms: _22  and  _23
REMARK   11  A    between atoms: _26  and  _28
REMARK   12  A    between atoms: _28  and  _29
REMARK   13  A    between atoms: _31  and  _33
REMARK   14  A    between atoms: _33  and  _34
REMARK   15  A    between atoms: _33  and  _36
REMARK   16  A    between atoms: _36  and  _37
REMARK   17  A    between atoms: _37  and  _38
REMARK   18  A    between atoms: _38  and  _39
REMARK   19  A    between atoms: _48  and  _50
REMARK   20  A    between atoms: _50  and  _51
REMARK   21  A    between atoms: _53  and  _55
REMARK   22  A    between atoms: _55  and  _56
REMARK   23  A    between atoms: _55  and  _58
REMARK   24  A    between atoms: _58  and  _59
REMARK   25  A    between atoms: _64  and  _66
REMARK   26  A    between atoms: _66  and  _67
REMARK   27  A    between atoms: _66  and  _69
REMARK   28  A    between atoms: _69  and  _70
REMARK   29  A    between atoms: _76  and  _78
REMARK   30  A    between atoms: _78  and  _79
REMARK   31  A    between atoms: _81  and  _83
REMARK   32  A    between atoms: _83  and  _84
REMARK   33  A    between atoms: _83  and  _86
REMARK   34  A    between atoms: _88  and  _90
REMARK   35  A    between atoms: _90  and  _91
REMARK   36  A    between atoms: _90  and  _93
REMARK   37  A    between atoms: _96  and  _98
REMARK   38  A    between atoms: _98  and  _99
REMARK   39  A    between atoms: _98  and  _101
REMARK   40  A    between atoms: _101  and  _102
REMARK   41  A    between atoms: _107  and  _108
REMARK   42  A    between atoms: _110  and  _112
REMARK   43  A    between atoms: _112  and  _113
REMARK   44  A    between atoms: _112  and  _115
REMARK   45  A    between atoms: _115  and  _116
REMARK   46  A    between atoms: _121  and  _123
REMARK   47  A    between atoms: _123  and  _124
REMARK   48  A    between atoms: _123  and  _126
REMARK   49  A    between atoms: _126  and  _127
REMARK   50  A    between atoms: _132  and  _134
REMARK   51  A    between atoms: _134  and  _135
REMARK   52  A    between atoms: _134  and  _137
REMARK   53  A    between atoms: _139  and  _141
REMARK   54  A    between atoms: _141  and  _142
REMARK   55  A    between atoms: _145  and  _147
REMARK   56  A    between atoms: _147  and  _148
REMARK   57  A    between atoms: _147  and  _150
REMARK   58  A    between atoms: _153  and  _155
REMARK   59  A    between atoms: _155  and  _156
REMARK   60  A    between atoms: _155  and  _158
REMARK   61  A    between atoms: _158  and  _159
REMARK   62  A    between atoms: _159  and  _160
REMARK   63  A    between atoms: _160  and  _161
REMARK   64  A    between atoms: _161  and  _162
REMARK   65  A    between atoms: _166  and  _168
REMARK   66  A    between atoms: _168  and  _169
REMARK   67  A    between atoms: _168  and  _171
REMARK   68  A    between atoms: _171  and  _172
REMARK   69  A    between atoms: _174  and  _176
REMARK   70  A    between atoms: _176  and  _177
REMARK   71  A    between atoms: _176  and  _179
REMARK   72  A    between atoms: _179  and  _180
REMARK   73  A    between atoms: _183  and  _185
REMARK   74  A    between atoms: _185  and  _186
REMARK   75  A    between atoms: _185  and  _188
REMARK   76  A    between atoms: _188  and  _189
REMARK   77  A    between atoms: _192  and  _194
REMARK   78  A    between atoms: _194  and  _195
REMARK   79  A    between atoms: _194  and  _197
REMARK   80  A    between atoms: _197  and  _198
REMARK   81  A    between atoms: _198  and  _199
REMARK   82  A    between atoms: _202  and  _204
REMARK   83  A    between atoms: _204  and  _205
REMARK   84  A    between atoms: _204  and  _207
REMARK   85  A    between atoms: _210  and  _212
REMARK   86  A    between atoms: _212  and  _213
REMARK   87  A    between atoms: _212  and  _215
REMARK   88  A    between atoms: _215  and  _216
REMARK   89  A    between atoms: _216  and  _217
REMARK   90  A    between atoms: _222  and  _224
REMARK   91  A    between atoms: _224  and  _225
REMARK   92  A    between atoms: _224  and  _227
REMARK   93  A    between atoms: _227  and  _228
REMARK   94  A    between atoms: _234  and  _236
REMARK   95  A    between atoms: _236  and  _237
REMARK   96  A    between atoms: _236  and  _239
REMARK   97  A    between atoms: _239  and  _240
REMARK   98  A    between atoms: _243  and  _245
REMARK   99  A    between atoms: _245  and  _246
REMARK  100  A    between atoms: _245  and  _248
REMARK  101  A    between atoms: _248  and  _249
REMARK  102  A    between atoms: _252  and  _254
REMARK  103  A    between atoms: _254  and  _255
REMARK  104  A    between atoms: _254  and  _257
REMARK  105  A    between atoms: _257  and  _258
REMARK  106  A    between atoms: _258  and  _259
REMARK  107  A    between atoms: _262  and  _264
REMARK  108  A    between atoms: _264  and  _265
REMARK  109  A    between atoms: _267  and  _269
REMARK  110  A    between atoms: _269  and  _270
REMARK  111  A    between atoms: _269  and  _272
REMARK  112  A    between atoms: _272  and  _273
REMARK  113  A    between atoms: _276  and  _278
REMARK  114  A    between atoms: _278  and  _279
REMARK  115  A    between atoms: _278  and  _281
REMARK  116  A    between atoms: _281  and  _282
REMARK  117  A    between atoms: _285  and  _287
REMARK  118  A    between atoms: _287  and  _288
REMARK  119  A    between atoms: _287  and  _290
REMARK  120  A    between atoms: _290  and  _291
REMARK  121  A    between atoms: _291  and  _292
REMARK  122  A    between atoms: _294  and  _296
REMARK  123  A    between atoms: _296  and  _297
REMARK  124  A    between atoms: _296  and  _299
REMARK  125  A    between atoms: _299  and  _300
REMARK  126  A    between atoms: _300  and  _301
REMARK  127  A    between atoms: _301  and  _302
REMARK  128  A    between atoms: _302  and  _303
REMARK  129  A    between atoms: _307  and  _309
REMARK  130  A    between atoms: _309  and  _310
REMARK  131  A    between atoms: _309  and  _312
REMARK  132  A    between atoms: _312  and  _313
REMARK  133  A    between atoms: _319  and  _321
REMARK  134  A    between atoms: _321  and  _322
REMARK  135  A    between atoms: _321  and  _324
REMARK  136  A    between atoms: _327  and  _329
REMARK  137  A    between atoms: _329  and  _330
REMARK  138  A    between atoms: _329  and  _332
REMARK  139  A    between atoms: _332  and  _333
REMARK  140  A    between atoms: _336  and  _338
REMARK  141  A    between atoms: _338  and  _339
REMARK  142  A    between atoms: _338  and  _341
REMARK  143  A    between atoms: _341  and  _342
REMARK  144  A    between atoms: _344  and  _346
REMARK  145  A    between atoms: _346  and  _347
REMARK  146  A    between atoms: _346  and  _349
REMARK  147  A    between atoms: _349  and  _350
REMARK  148  A    between atoms: _353  and  _355
REMARK  149  A    between atoms: _355  and  _356
REMARK  150  A    between atoms: _358  and  _360
REMARK  151  A    between atoms: _360  and  _361
REMARK  152  A    between atoms: _360  and  _363
REMARK  153  A    between atoms: _363  and  _364
REMARK  154  A    between atoms: _367  and  _369
REMARK  155  A    between atoms: _369  and  _370
REMARK  156  A    between atoms: _369  and  _372
REMARK  157  A    between atoms: _375  and  _376
REMARK  158  A    between atoms: _381  and  _383
REMARK  159  A    between atoms: _383  and  _384
REMARK  160  A    between atoms: _383  and  _386
REMARK  161  A    between atoms: _386  and  _387
REMARK  162  A    between atoms: _390  and  _392
REMARK  163  A    between atoms: _392  and  _393
REMARK  164  A    between atoms: _392  and  _395
REMARK  165  A    between atoms: _398  and  _400
REMARK  166  A    between atoms: _400  and  _401
REMARK  167  A    between atoms: _400  and  _403
REMARK  168  A    between atoms: _406  and  _408
REMARK  169  A    between atoms: _408  and  _409
REMARK  170  A    between atoms: _408  and  _411
REMARK  171  A    between atoms: _411  and  _412
REMARK  172  A    between atoms: _416  and  _417
REMARK  173  A    between atoms: _422  and  _424
REMARK  174  A    between atoms: _424  and  _425
REMARK  175  A    between atoms: _424  and  _427
REMARK  176  A    between atoms: _427  and  _428
REMARK  177  A    between atoms: _433  and  _434
REMARK  178  A    between atoms: _436  and  _438
REMARK  179  A    between atoms: _438  and  _439
REMARK  180  A    between atoms: _438  and  _441
REMARK  181  A    between atoms: _441  and  _442
REMARK  182  A    between atoms: _442  and  _443
REMARK  183  A    between atoms: _445  and  _447
REMARK  184  A    between atoms: _447  and  _448
REMARK  185  A    between atoms: _447  and  _450
REMARK  186  A    between atoms: _450  and  _451
REMARK  187  A    between atoms: _451  and  _452
REMARK  188  A    between atoms: _452  and  _453
REMARK  189  A    between atoms: _453  and  _454
REMARK  190  A    between atoms: _458  and  _460
REMARK  191  A    between atoms: _460  and  _461
REMARK  192  A    between atoms: _460  and  _463
REMARK  193  A    between atoms: _463  and  _464
REMARK  194  A    between atoms: _469  and  _471
REMARK  195  A    between atoms: _471  and  _472
REMARK  196  A    between atoms: _474  and  _476
REMARK  197  A    between atoms: _476  and  _477
REMARK  198  A    between atoms: _476  and  _479
REMARK  199  A    between atoms: _479  and  _480
REMARK  200  A    between atoms: _483  and  _485
REMARK  201  A    between atoms: _485  and  _486
REMARK  202  A    between atoms: _485  and  _488
REMARK  203  A    between atoms: _488  and  _489
REMARK  204  A    between atoms: _494  and  _496
REMARK  205  A    between atoms: _496  and  _497
REMARK  206  A    between atoms: _496  and  _499
REMARK  207  A    between atoms: _499  and  _500
REMARK  208  A    between atoms: _503  and  _505
REMARK  209  A    between atoms: _505  and  _506
REMARK  210  A    between atoms: _505  and  _508
REMARK  211  A    between atoms: _508  and  _509
REMARK  212  A    between atoms: _515  and  _517
REMARK  213  A    between atoms: _517  and  _518
REMARK  214  A    between atoms: _517  and  _520
REMARK  215  A    between atoms: _523  and  _525
REMARK  216  A    between atoms: _525  and  _526
REMARK  217  A    between atoms: _525  and  _528
REMARK  218  A    between atoms: _528  and  _529
REMARK  219  A    between atoms: _534  and  _536
REMARK  220  A    between atoms: _536  and  _537
REMARK  221  A    between atoms: _536  and  _539
REMARK  222  A    between atoms: _539  and  _540
REMARK  223  A    between atoms: _540  and  _541
REMARK  224  A    between atoms: _541  and  _542
REMARK  225  A    between atoms: _551  and  _553
REMARK  226  A    between atoms: _553  and  _554
REMARK  227  A    between atoms: _553  and  _556
REMARK  228  A    between atoms: _556  and  _557
REMARK  229  A    between atoms: _562  and  _564
REMARK  230  A    between atoms: _564  and  _565
REMARK  231  A    between atoms: _564  and  _567
REMARK  232  A    between atoms: _569  and  _571
REMARK  233  A    between atoms: _571  and  _572
REMARK  234  A    between atoms: _571  and  _574
REMARK  235  A    between atoms: _574  and  _575
REMARK  236  A    between atoms: _575  and  _576
REMARK  237  A    between atoms: _578  and  _580
REMARK  238  A    between atoms: _580  and  _581
REMARK  239  A    between atoms: _580  and  _583
REMARK  240  A    between atoms: _583  and  _584
REMARK  241  A    between atoms: _587  and  _589
REMARK  242  A    between atoms: _589  and  _590
REMARK  243  A    between atoms: _589  and  _592
REMARK  244  A    between atoms: _592  and  _593
REMARK  245  A    between atoms: _593  and  _594
REMARK  246  A    between atoms: _594  and  _595
REMARK  247  A    between atoms: _595  and  _596
REMARK  248  A    between atoms: _600  and  _602
REMARK  249  A    between atoms: _602  and  _603
REMARK  250  A    between atoms: _602  and  _605
REMARK  251  A    between atoms: _608  and  _610
REMARK  252  A    between atoms: _610  and  _611
REMARK  253  A    between atoms: _614  and  _616
REMARK  254  A    between atoms: _616  and  _617
REMARK  255  A    between atoms: _616  and  _619
REMARK  256  A    between atoms: _619  and  _620
REMARK  257  A    between atoms: _623  and  _625
REMARK  258  A    between atoms: _625  and  _626
REMARK  259  A    between atoms: _625  and  _628
REMARK  260  A    between atoms: _628  and  _629
REMARK  261  A    between atoms: _635  and  _637
REMARK  262  A    between atoms: _637  and  _638
REMARK                            x       y       z     vdW  Elec       q    Type
REMARK                         _______ _______ _______ _____ _____    ______ ____
ROOT
ATOM      1  C   LEU A   2      28.286   2.304  18.833  0.00  0.00    +0.241 C 
ATOM      2  N   SER A   3      29.285   1.680  19.457  0.00  0.00    -0.295 N 
ATOM      3  H   SER A   3      29.169   1.465  20.468  0.00  0.00    +0.150 HD
ATOM      4  O   LEU A   2      28.313   2.629  17.644  0.00  0.00    -0.273 OA
ENDROOT
BRANCH   1   5
ATOM      5  CA  LEU A   2      27.070   2.632  19.698  0.00  0.00    +0.149 C 
BRANCH   5   8
ATOM      6  C   VAL A   1      27.481   5.040  19.822  0.00  0.00    +0.238 C 
ATOM      7  O   VAL A   1      28.621   4.853  20.270  0.00  0.00    -0.274 OA
ATOM      8  N   LEU A   2      26.650   4.039  19.530  0.00  0.00    -0.297 N 
ATOM      9  H   LEU A   2      25.694   4.251  19.180  0.00  0.00    +0.150 HD
BRANCH   6  10
ATOM     10  CA  VAL A   1      26.966   6.468  19.609  0.00  0.00    +0.145 C 
BRANCH  10  11
ATOM     11  CB  VAL A   1      27.676   7.134  18.391  0.00  0.00    +0.025 C 
ATOM     12  CG2 VAL A   1      27.163   8.569  18.168  0.00  0.00    +0.002 C 
ATOM     13  CG1 VAL A   1      27.498   6.311  17.118  0.00  0.00    +0.002 C 
ENDBRANCH  10  11
BRANCH  10  14
ATOM     14  N   VAL A   1      27.216   7.218  20.844  0.00  0.00    -0.238 NA
ATOM     15  H   VAL A   1      28.185   7.243  21.220  0.00  0.00    +0.142 HD
ENDBRANCH  10  14
ENDBRANCH   6  10
ENDBRANCH   5   8
BRANCH   5  16
ATOM     16  CB  LEU A   2      25.923   1.656  19.396  0.00  0.00    +0.029 C 
BRANCH  16  17
ATOM     17  CG  LEU A   2      26.159   0.166  19.711  0.00  0.00    +0.002 C 
ATOM     18  CD2 LEU A   2      26.352  -0.108  21.213  0.00  0.00    +0.000 C 
ATOM     19  CD1 LEU A   2      25.021  -0.665  19.173  0.00  0.00    +0.000 C 
ENDBRANCH  16  17
ENDBRANCH   5  16
ENDBRANCH   1   5
BRANCH   2  20
ATOM     20  CA  SER A   3      30.537   1.277  18.810  0.00  0.00    +0.178 C 
BRANCH  20  21
ATOM     21  C   SER A   3      30.382   0.010  17.980  0.00  0.00    +0.243 C 
ATOM     22  O   SER A   3      29.568  -0.856  18.294  0.00  0.00    -0.273 OA
ATOM     23  N   LEU A   4      31.190  -0.097  16.931  0.00  0.00    -0.298 N 
ATOM     24  H   LEU A   4      31.737   0.733  16.625  0.00  0.00    +0.150 HD
BRANCH  23  25
ATOM     25  CA  LEU A   4      31.327  -1.346  16.202  0.00  0.00    +0.137 C 
BRANCH  25  26
ATOM     26  C   LEU A   4      32.659  -1.976  16.581  0.00  0.00    +0.227 C 
ATOM     27  O   LEU A   4      33.720  -1.430  16.282  0.00  0.00    -0.286 OA
ENDBRANCH  25  26
BRANCH  25  28
ATOM     28  CB  LEU A   4      31.239  -1.124  14.685  0.00  0.00    +0.028 C 
BRANCH  28  29
ATOM     29  CG  LEU A   4      31.386  -2.380  13.812  0.00  0.00    +0.002 C 
ATOM     30  CD2 LEU A   4      30.283  -3.401  14.101  0.00  0.00    +0.000 C 
ATOM     31  CD1 LEU A   4      31.397  -2.014  12.339  0.00  0.00    +0.000 C 
ENDBRANCH  28  29
ENDBRANCH  25  28
ENDBRANCH  23  25
ENDBRANCH  20  21
BRANCH  20  32
ATOM     32  CB  SER A   3      31.614   0.995  19.863  0.00  0.00    +0.166 C 
BRANCH  32  33
ATOM     33  OG  SER A   3      32.028   2.169  20.523  0.00  0.00    -0.380 OA
ATOM     34  H   SER A   3      32.401   2.804  19.861  0.00  0.00    +0.211 HD
ENDBRANCH  32  33
ENDBRANCH  20  32
ENDBRANCH   2  20
TORSDOF 15
REMARK  Name = ../refined-set-2016/3u6i/3u6i_pocket.pdb
REMARK  262 active torsions:
REMARK  status: ('A' for Active; 'I' for Inactive)
REMARK    1  A    between atoms: _1  and  _3
REMARK    2  A    between atoms: _3  and  _4
REMARK    3  A    between atoms: _3  and  _6
REMARK    4  A    between atoms: _9  and  _11
REMARK    5  A    between atoms: _11  and  _12
REMARK    6  A    between atoms: _11  and  _14
REMARK    7  A    between atoms: _17  and  _19
REMARK    8  A    between atoms: _19  and  _20
REMARK    9  A    between atoms: _19  and  _22
REMARK   10  A    between atoms: _22  and  _23
REMARK   11  A    between atoms: _26  and  _28
REMARK   12  A    between atoms: _28  and  _29
REMARK   13  A    between atoms: _31  and  _33
REMARK   14  A    between atoms: _33  and  _34
REMARK   15  A    between atoms: _33  and  _36
REMARK   16  A    between atoms: _36  and  _37
REMARK   17  A    between atoms: _37  and  _38
REMARK   18  A    between atoms: _38  and  _39
REMARK   19  A    between atoms: _48  and  _50
REMARK   20  A    between atoms: _50  and  _51
REMARK   21  A    between atoms: _53  and  _55
REMARK   22  A    between atoms: _55  and  _56
REMARK   23  A    between atoms: _55  and  _58
REMARK   24  A    between atoms: _58  and  _59
REMARK   25  A    between atoms: _64  and  _66
REMARK   26  A    between atoms: _66  and  _67
REMARK   27  A    between atoms: _66  and  _69
REMARK   28  A    between atoms: _69  and  _70
REMARK   29  A    between atoms: _76  and  _78
REMARK   30  A    between atoms: _78  and  _79
REMARK   31  A    between atoms: _81  and  _83
REMARK   32  A    between atoms: _83  and  _84
REMARK   33  A    between atoms: _83  and  _86
REMARK   34  A    between atoms: _88  and  _90
REMARK   35  A    between atoms: _90  and  _91
REMARK   36  A    between atoms: _90  and  _93
REMARK   37  A    between atoms: _96  and  _98
REMARK   38  A    between atoms: _98  and  _99
REMARK   39  A    between atoms: _98  and  _101
REMARK   40  A    between atoms: _101  and  _102
REMARK   41  A    between atoms: _107  and  _108
REMARK   42  A    between atoms: _110  and  _112
REMARK   43  A    between atoms: _112  and  _113
REMARK   44  A    between atoms: _112  and  _115
REMARK   45  A    between atoms: _115  and  _116
REMARK   46  A    between atoms: _121  and  _123
REMARK   47  A    between atoms: _123  and  _124
REMARK   48  A    between atoms: _123  and  _126
REMARK   49  A    between atoms: _126  and  _127
REMARK   50  A    between atoms: _132  and  _134
REMARK   51  A    between atoms: _134  and  _135
REMARK   52  A    between atoms: _134  and  _137
REMARK   53  A    between atoms: _139  and  _141
REMARK   54  A    between atoms: _141  and  _142
REMARK   55  A    between atoms: _145  and  _147
REMARK   56  A    between atoms: _147  and  _148
REMARK   57  A    between atoms: _147  and  _150
REMARK   58  A    between atoms: _153  and  _155
REMARK   59  A    between atoms: _155  and  _156
REMARK   60  A    between atoms: _155  and  _158
REMARK   61  A    between atoms: _158  and  _159
REMARK   62  A    between atoms: _159  and  _160
REMARK   63  A    between atoms: _160  and  _161
REMARK   64  A    between atoms: _161  and  _162
REMARK   65  A    between atoms: _166  and  _168
REMARK   66  A    between atoms: _168  and  _169
REMARK   67  A    between atoms: _168  and  _171
REMARK   68  A    between atoms: _171  and  _172
REMARK   69  A    between atoms: _174  and  _176
REMARK   70  A    between atoms: _176  and  _177
REMARK   71  A    between atoms: _176  and  _179
REMARK   72  A    between atoms: _179  and  _180
REMARK   73  A    between atoms: _183  and  _185
REMARK   74  A    between atoms: _185  and  _186
REMARK   75  A    between atoms: _185  and  _188
REMARK   76  A    between atoms: _188  and  _189
REMARK   77  A    between atoms: _192  and  _194
REMARK   78  A    between atoms: _194  and  _195
REMARK   79  A    between atoms: _194  and  _197
REMARK   80  A    between atoms: _197  and  _198
REMARK   81  A    between atoms: _198  and  _199
REMARK   82  A    between atoms: _202  and  _204
REMARK   83  A    between atoms: _204  and  _205
REMARK   84  A    between atoms: _204  and  _207
REMARK   85  A    between atoms: _210  and  _212
REMARK   86  A    between atoms: _212  and  _213
REMARK   87  A    between atoms: _212  and  _215
REMARK   88  A    between atoms: _215  and  _216
REMARK   89  A    between atoms: _216  and  _217
REMARK   90  A    between atoms: _222  and  _224
REMARK   91  A    between atoms: _224  and  _225
REMARK   92  A    between atoms: _224  and  _227
REMARK   93  A    between atoms: _227  and  _228
REMARK   94  A    between atoms: _234  and  _236
REMARK   95  A    between atoms: _236  and  _237
REMARK   96  A    between atoms: _236  and  _239
REMARK   97  A    between atoms: _239  and  _240
REMARK   98  A    between atoms: _243  and  _245
REMARK   99  A    between atoms: _245  and  _246
REMARK  100  A    between atoms: _245  and  _248
REMARK  101  A    between atoms: _248  and  _249
REMARK  102  A    between atoms: _252  and  _254
REMARK  103  A    between atoms: _254  and  _255
REMARK  104  A    between atoms: _254  and  _257
REMARK  105  A    between atoms: _257  and  _258
REMARK  106  A    between atoms: _258  and  _259
REMARK  107  A    between atoms: _262  and  _264
REMARK  108  A    between atoms: _264  and  _265
REMARK  109  A    between atoms: _267  and  _269
REMARK  110  A    between atoms: _269  and  _270
REMARK  111  A    between atoms: _269  and  _272
REMARK  112  A    between atoms: _272  and  _273
REMARK  113  A    between atoms: _276  and  _278
REMARK  114  A    between atoms: _278  and  _279
REMARK  115  A    between atoms: _278  and  _281
REMARK  116  A    between atoms: _281  and  _282
REMARK  117  A    between atoms: _285  and  _287
REMARK  118  A    between atoms: _287  and  _288
REMARK  119  A    between atoms: _287  and  _290
REMARK  120  A    between atoms: _290  and  _291
REMARK  121  A    between atoms: _291  and  _292
REMARK  122  A    between atoms: _294  and  _296
REMARK  123  A    between atoms: _296  and  _297
REMARK  124  A    between atoms: _296  and  _299
REMARK  125  A    between atoms: _299  and  _300
REMARK  126  A    between atoms: _300  and  _301
REMARK  127  A    between atoms: _301  and  _302
REMARK  128  A    between atoms: _302  and  _303
REMARK  129  A    between atoms: _307  and  _309
REMARK  130  A    between atoms: _309  and  _310
REMARK  131  A    between atoms: _309  and  _312
REMARK  132  A    between atoms: _312  and  _313
REMARK  133  A    between atoms: _319  and  _321
REMARK  134  A    between atoms: _321  and  _322
REMARK  135  A    between atoms: _321  and  _324
REMARK  136  A    between atoms: _327  and  _329
REMARK  137  A    between atoms: _329  and  _330
REMARK  138  A    between atoms: _329  and  _332
REMARK  139  A    between atoms: _332  and  _333
REMARK  140  A    between atoms: _336  and  _338
REMARK  141  A    between atoms: _338  and  _339
REMARK  142  A    between atoms: _338  and  _341
REMARK  143  A    between atoms: _341  and  _342
REMARK  144  A    between atoms: _344  and  _346
REMARK  145  A    between atoms: _346  and  _347
REMARK  146  A    between atoms: _346  and  _349
REMARK  147  A    between atoms: _349  and  _350
REMARK  148  A    between atoms: _353  and  _355
REMARK  149  A    between atoms: _355  and  _356
REMARK  150  A    between atoms: _358  and  _360
REMARK  151  A    between atoms: _360  and  _361
REMARK  152  A    between atoms: _360  and  _363
REMARK  153  A    between atoms: _363  and  _364
REMARK  154  A    between atoms: _367  and  _369
REMARK  155  A    between atoms: _369  and  _370
REMARK  156  A    between atoms: _369  and  _372
REMARK  157  A    between atoms: _375  and  _376
REMARK  158  A    between atoms: _381  and  _383
REMARK  159  A    between atoms: _383  and  _384
REMARK  160  A    between atoms: _383  and  _386
REMARK  161  A    between atoms: _386  and  _387
REMARK  162  A    between atoms: _390  and  _392
REMARK  163  A    between atoms: _392  and  _393
REMARK  164  A    between atoms: _392  and  _395
REMARK  165  A    between atoms: _398  and  _400
REMARK  166  A    between atoms: _400  and  _401
REMARK  167  A    between atoms: _400  and  _403
REMARK  168  A    between atoms: _406  and  _408
REMARK  169  A    between atoms: _408  and  _409
REMARK  170  A    between atoms: _408  and  _411
REMARK  171  A    between atoms: _411  and  _412
REMARK  172  A    between atoms: _416  and  _417
REMARK  173  A    between atoms: _422  and  _424
REMARK  174  A    between atoms: _424  and  _425
REMARK  175  A    between atoms: _424  and  _427
REMARK  176  A    between atoms: _427  and  _428
REMARK  177  A    between atoms: _433  and  _434
REMARK  178  A    between atoms: _436  and  _438
REMARK  179  A    between atoms: _438  and  _439
REMARK  180  A    between atoms: _438  and  _441
REMARK  181  A    between atoms: _441  and  _442
REMARK  182  A    between atoms: _442  and  _443
REMARK  183  A    between atoms: _445  and  _447
REMARK  184  A    between atoms: _447  and  _448
REMARK  185  A    between atoms: _447  and  _450
REMARK  186  A    between atoms: _450  and  _451
REMARK  187  A    between atoms: _451  and  _452
REMARK  188  A    between atoms: _452  and  _453
REMARK  189  A    between atoms: _453  and  _454
REMARK  190  A    between atoms: _458  and  _460
REMARK  191  A    between atoms: _460  and  _461
REMARK  192  A    between atoms: _460  and  _463
REMARK  193  A    between atoms: _463  and  _464
REMARK  194  A    between atoms: _469  and  _471
REMARK  195  A    between atoms: _471  and  _472
REMARK  196  A    between atoms: _474  and  _476
REMARK  197  A    between atoms: _476  and  _477
REMARK  198  A    between atoms: _476  and  _479
REMARK  199  A    between atoms: _479  and  _480
REMARK  200  A    between atoms: _483  and  _485
REMARK  201  A    between atoms: _485  and  _486
REMARK  202  A    between atoms: _485  and  _488
REMARK  203  A    between atoms: _488  and  _489
REMARK  204  A    between atoms: _494  and  _496
REMARK  205  A    between atoms: _496  and  _497
REMARK  206  A    between atoms: _496  and  _499
REMARK  207  A    between atoms: _499  and  _500
REMARK  208  A    between atoms: _503  and  _505
REMARK  209  A    between atoms: _505  and  _506
REMARK  210  A    between atoms: _505  and  _508
REMARK  211  A    between atoms: _508  and  _509
REMARK  212  A    between atoms: _515  and  _517
REMARK  213  A    between atoms: _517  and  _518
REMARK  214  A    between atoms: _517  and  _520
REMARK  215  A    between atoms: _523  and  _525
REMARK  216  A    between atoms: _525  and  _526
REMARK  217  A    between atoms: _525  and  _528
REMARK  218  A    between atoms: _528  and  _529
REMARK  219  A    between atoms: _534  and  _536
REMARK  220  A    between atoms: _536  and  _537
REMARK  221  A    between atoms: _536  and  _539
REMARK  222  A    between atoms: _539  and  _540
REMARK  223  A    between atoms: _540  and  _541
REMARK  224  A    between atoms: _541  and  _542
REMARK  225  A    between atoms: _551  and  _553
REMARK  226  A    between atoms: _553  and  _554
REMARK  227  A    between atoms: _553  and  _556
REMARK  228  A    between atoms: _556  and  _557
REMARK  229  A    between atoms: _562  and  _564
REMARK  230  A    between atoms: _564  and  _565
REMARK  231  A    between atoms: _564  and  _567
REMARK  232  A    between atoms: _569  and  _571
REMARK  233  A    between atoms: _571  and  _572
REMARK  234  A    between atoms: _571  and  _574
REMARK  235  A    between atoms: _574  and  _575
REMARK  236  A    between atoms: _575  and  _576
REMARK  237  A    between atoms: _578  and  _580
REMARK  238  A    between atoms: _580  and  _581
REMARK  239  A    between atoms: _580  and  _583
REMARK  240  A    between atoms: _583  and  _584
REMARK  241  A    between atoms: _587  and  _589
REMARK  242  A    between atoms: _589  and  _590
REMARK  243  A    between atoms: _589  and  _592
REMARK  244  A    between atoms: _592  and  _593
REMARK  245  A    between atoms: _593  and  _594
REMARK  246  A    between atoms: _594  and  _595
REMARK  247  A    between atoms: _595  and  _596
REMARK  248  A    between atoms: _600  and  _602
REMARK  249  A    between atoms: _602  and  _603
REMARK  250  A    between atoms: _602  and  _605
REMARK  251  A    between atoms: _608  and  _610
REMARK  252  A    between atoms: _610  and  _611
REMARK  253  A    between atoms: _614  and  _616
REMARK  254  A    between atoms: _616  and  _617
REMARK  255  A    between atoms: _616  and  _619
REMARK  256  A    between atoms: _619  and  _620
REMARK  257  A    between atoms: _623  and  _625
REMARK  258  A    between atoms: _625  and  _626
REMARK  259  A    between atoms: _625  and  _628
REMARK  260  A    between atoms: _628  and  _629
REMARK  261  A    between atoms: _635  and  _637
REMARK  262  A    between atoms: _637  and  _638
REMARK                            x       y       z     vdW  Elec       q    Type
REMARK                         _______ _______ _______ _____ _____    ______ ____
ROOT
ATOM      1  CA  ILE A   2      32.330  -7.781  11.622  0.00  0.00    +0.148 C 
ENDROOT
BRANCH   1   4
ATOM      2  C   GLY A   1      32.870  -6.357  13.541  0.00  0.00    +0.240 C 
ATOM      3  O   GLY A   1      31.737  -6.430  14.019  0.00  0.00    -0.274 OA
ATOM      4  N   ILE A   2      33.223  -6.917  12.387  0.00  0.00    -0.297 N 
ATOM      5  H   ILE A   2      34.176  -6.731  12.014  0.00  0.00    +0.150 HD
BRANCH   2   6
ATOM      6  CA  GLY A   1      33.959  -5.589  14.248  0.00  0.00    +0.169 C 
BRANCH   6   7
ATOM      7  N   GLY A   1      33.524  -4.976  15.495  0.00  0.00    -0.236 NA
ATOM      8  H   GLY A   1      32.506  -4.862  15.677  0.00  0.00    +0.142 HD
ENDBRANCH   6   7
ENDBRANCH   2   6
ENDBRANCH   1   4
BRANCH   1   9
ATOM      9  C   ILE A   2      33.011  -9.107  11.278  0.00  0.00    +0.241 C 
ATOM     10  O   ILE A   2      34.244  -9.201  11.277  0.00  0.00    -0.273 OA
ATOM     11  N   CYS A   3      32.198 -10.122  10.982  0.00  0.00    -0.297 N 
ATOM     12  H   CYS A   3      31.170  -9.992  11.077  0.00  0.00    +0.150 HD
BRANCH  11  13
ATOM     13  CA  CYS A   3      32.714 -11.412  10.528  0.00  0.00    +0.149 C 
BRANCH  13  14
ATOM     14  CB  CYS A   3      32.400 -12.520  11.535  0.00  0.00    +0.096 C 
ATOM     15  SG  CYS A   3      32.832 -12.099  13.229  0.00  0.00    -0.080 S 
ENDBRANCH  13  14
BRANCH  13  16
ATOM     16  C   CYS A   3      32.207 -11.792   9.141  0.00  0.00    +0.228 C 
ATOM     17  O   CYS A   3      31.000 -11.940   8.915  0.00  0.00    -0.286 OA
ENDBRANCH  13  16
ENDBRANCH  11  13
ENDBRANCH   1   9
BRANCH   1  18
ATOM     18  CB  ILE A   2      31.820  -7.108  10.310  0.00  0.00    +0.027 C 
ATOM     19  CG2 ILE A   2      30.862  -5.943  10.621  0.00  0.00    +0.002 C 
BRANCH  18  20
ATOM     20  CG1 ILE A   2      32.988  -6.682   9.407  0.00  0.00    +0.002 C 
ATOM     21  CD1 ILE A   2      32.578  -6.369   7.975  0.00  0.00    +0.000 C 
ENDBRANCH  18  20
ENDBRANCH   1  18
TORSDOF 9
REMARK  Name = ../refined-set-2016/3u6i/3u6i_pocket.pdb
REMARK  262 active torsions:
REMARK  status: ('A' for Active; 'I' for Inactive)
REMARK    1  A    between atoms: _1  and  _3
REMARK    2  A    between atoms: _3  and  _4
REMARK    3  A    between atoms: _3  and  _6
REMARK    4  A    between atoms: _9  and  _11
REMARK    5  A    between atoms: _11  and  _12
REMARK    6  A    between atoms: _11  and  _14
REMARK    7  A    between atoms: _17  and  _19
REMARK    8  A    between atoms: _19  and  _20
REMARK    9  A    between atoms: _19  and  _22
REMARK   10  A    between atoms: _22  and  _23
REMARK   11  A    between atoms: _26  and  _28
REMARK   12  A    between atoms: _28  and  _29
REMARK   13  A    between atoms: _31  and  _33
REMARK   14  A    between atoms: _33  and  _34
REMARK   15  A    between atoms: _33  and  _36
REMARK   16  A    between atoms: _36  and  _37
REMARK   17  A    between atoms: _37  and  _38
REMARK   18  A    between atoms: _38  and  _39
REMARK   19  A    between atoms: _48  and  _50
REMARK   20  A    between atoms: _50  and  _51
REMARK   21  A    between atoms: _53  and  _55
REMARK   22  A    between atoms: _55  and  _56
REMARK   23  A    between atoms: _55  and  _58
REMARK   24  A    between atoms: _58  and  _59
REMARK   25  A    between atoms: _64  and  _66
REMARK   26  A    between atoms: _66  and  _67
REMARK   27  A    between atoms: _66  and  _69
REMARK   28  A    between atoms: _69  and  _70
REMARK   29  A    between atoms: _76  and  _78
REMARK   30  A    between atoms: _78  and  _79
REMARK   31  A    between atoms: _81  and  _83
REMARK   32  A    between atoms: _83  and  _84
REMARK   33  A    between atoms: _83  and  _86
REMARK   34  A    between atoms: _88  and  _90
REMARK   35  A    between atoms: _90  and  _91
REMARK   36  A    between atoms: _90  and  _93
REMARK   37  A    between atoms: _96  and  _98
REMARK   38  A    between atoms: _98  and  _99
REMARK   39  A    between atoms: _98  and  _101
REMARK   40  A    between atoms: _101  and  _102
REMARK   41  A    between atoms: _107  and  _108
REMARK   42  A    between atoms: _110  and  _112
REMARK   43  A    between atoms: _112  and  _113
REMARK   44  A    between atoms: _112  and  _115
REMARK   45  A    between atoms: _115  and  _116
REMARK   46  A    between atoms: _121  and  _123
REMARK   47  A    between atoms: _123  and  _124
REMARK   48  A    between atoms: _123  and  _126
REMARK   49  A    between atoms: _126  and  _127
REMARK   50  A    between atoms: _132  and  _134
REMARK   51  A    between atoms: _134  and  _135
REMARK   52  A    between atoms: _134  and  _137
REMARK   53  A    between atoms: _139  and  _141
REMARK   54  A    between atoms: _141  and  _142
REMARK   55  A    between atoms: _145  and  _147
REMARK   56  A    between atoms: _147  and  _148
REMARK   57  A    between atoms: _147  and  _150
REMARK   58  A    between atoms: _153  and  _155
REMARK   59  A    between atoms: _155  and  _156
REMARK   60  A    between atoms: _155  and  _158
REMARK   61  A    between atoms: _158  and  _159
REMARK   62  A    between atoms: _159  and  _160
REMARK   63  A    between atoms: _160  and  _161
REMARK   64  A    between atoms: _161  and  _162
REMARK   65  A    between atoms: _166  and  _168
REMARK   66  A    between atoms: _168  and  _169
REMARK   67  A    between atoms: _168  and  _171
REMARK   68  A    between atoms: _171  and  _172
REMARK   69  A    between atoms: _174  and  _176
REMARK   70  A    between atoms: _176  and  _177
REMARK   71  A    between atoms: _176  and  _179
REMARK   72  A    between atoms: _179  and  _180
REMARK   73  A    between atoms: _183  and  _185
REMARK   74  A    between atoms: _185  and  _186
REMARK   75  A    between atoms: _185  and  _188
REMARK   76  A    between atoms: _188  and  _189
REMARK   77  A    between atoms: _192  and  _194
REMARK   78  A    between atoms: _194  and  _195
REMARK   79  A    between atoms: _194  and  _197
REMARK   80  A    between atoms: _197  and  _198
REMARK   81  A    between atoms: _198  and  _199
REMARK   82  A    between atoms: _202  and  _204
REMARK   83  A    between atoms: _204  and  _205
REMARK   84  A    between atoms: _204  and  _207
REMARK   85  A    between atoms: _210  and  _212
REMARK   86  A    between atoms: _212  and  _213
REMARK   87  A    between atoms: _212  and  _215
REMARK   88  A    between atoms: _215  and  _216
REMARK   89  A    between atoms: _216  and  _217
REMARK   90  A    between atoms: _222  and  _224
REMARK   91  A    between atoms: _224  and  _225
REMARK   92  A    between atoms: _224  and  _227
REMARK   93  A    between atoms: _227  and  _228
REMARK   94  A    between atoms: _234  and  _236
REMARK   95  A    between atoms: _236  and  _237
REMARK   96  A    between atoms: _236  and  _239
REMARK   97  A    between atoms: _239  and  _240
REMARK   98  A    between atoms: _243  and  _245
REMARK   99  A    between atoms: _245  and  _246
REMARK  100  A    between atoms: _245  and  _248
REMARK  101  A    between atoms: _248  and  _249
REMARK  102  A    between atoms: _252  and  _254
REMARK  103  A    between atoms: _254  and  _255
REMARK  104  A    between atoms: _254  and  _257
REMARK  105  A    between atoms: _257  and  _258
REMARK  106  A    between atoms: _258  and  _259
REMARK  107  A    between atoms: _262  and  _264
REMARK  108  A    between atoms: _264  and  _265
REMARK  109  A    between atoms: _267  and  _269
REMARK  110  A    between atoms: _269  and  _270
REMARK  111  A    between atoms: _269  and  _272
REMARK  112  A    between atoms: _272  and  _273
REMARK  113  A    between atoms: _276  and  _278
REMARK  114  A    between atoms: _278  and  _279
REMARK  115  A    between atoms: _278  and  _281
REMARK  116  A    between atoms: _281  and  _282
REMARK  117  A    between atoms: _285  and  _287
REMARK  118  A    between atoms: _287  and  _288
REMARK  119  A    between atoms: _287  and  _290
REMARK  120  A    between atoms: _290  and  _291
REMARK  121  A    between atoms: _291  and  _292
REMARK  122  A    between atoms: _294  and  _296
REMARK  123  A    between atoms: _296  and  _297
REMARK  124  A    between atoms: _296  and  _299
REMARK  125  A    between atoms: _299  and  _300
REMARK  126  A    between atoms: _300  and  _301
REMARK  127  A    between atoms: _301  and  _302
REMARK  128  A    between atoms: _302  and  _303
REMARK  129  A    between atoms: _307  and  _309
REMARK  130  A    between atoms: _309  and  _310
REMARK  131  A    between atoms: _309  and  _312
REMARK  132  A    between atoms: _312  and  _313
REMARK  133  A    between atoms: _319  and  _321
REMARK  134  A    between atoms: _321  and  _322
REMARK  135  A    between atoms: _321  and  _324
REMARK  136  A    between atoms: _327  and  _329
REMARK  137  A    between atoms: _329  and  _330
REMARK  138  A    between atoms: _329  and  _332
REMARK  139  A    between atoms: _332  and  _333
REMARK  140  A    between atoms: _336  and  _338
REMARK  141  A    between atoms: _338  and  _339
REMARK  142  A    between atoms: _338  and  _341
REMARK  143  A    between atoms: _341  and  _342
REMARK  144  A    between atoms: _344  and  _346
REMARK  145  A    between atoms: _346  and  _347
REMARK  146  A    between atoms: _346  and  _349
REMARK  147  A    between atoms: _349  and  _350
REMARK  148  A    between atoms: _353  and  _355
REMARK  149  A    between atoms: _355  and  _356
REMARK  150  A    between atoms: _358  and  _360
REMARK  151  A    between atoms: _360  and  _361
REMARK  152  A    between atoms: _360  and  _363
REMARK  153  A    between atoms: _363  and  _364
REMARK  154  A    between atoms: _367  and  _369
REMARK  155  A    between atoms: _369  and  _370
REMARK  156  A    between atoms: _369  and  _372
REMARK  157  A    between atoms: _375  and  _376
REMARK  158  A    between atoms: _381  and  _383
REMARK  159  A    between atoms: _383  and  _384
REMARK  160  A    between atoms: _383  and  _386
REMARK  161  A    between atoms: _386  and  _387
REMARK  162  A    between atoms: _390  and  _392
REMARK  163  A    between atoms: _392  and  _393
REMARK  164  A    between atoms: _392  and  _395
REMARK  165  A    between atoms: _398  and  _400
REMARK  166  A    between atoms: _400  and  _401
REMARK  167  A    between atoms: _400  and  _403
REMARK  168  A    between atoms: _406  and  _408
REMARK  169  A    between atoms: _408  and  _409
REMARK  170  A    between atoms: _408  and  _411
REMARK  171  A    between atoms: _411  and  _412
REMARK  172  A    between atoms: _416  and  _417
REMARK  173  A    between atoms: _422  and  _424
REMARK  174  A    between atoms: _424  and  _425
REMARK  175  A    between atoms: _424  and  _427
REMARK  176  A    between atoms: _427  and  _428
REMARK  177  A    between atoms: _433  and  _434
REMARK  178  A    between atoms: _436  and  _438
REMARK  179  A    between atoms: _438  and  _439
REMARK  180  A    between atoms: _438  and  _441
REMARK  181  A    between atoms: _441  and  _442
REMARK  182  A    between atoms: _442  and  _443
REMARK  183  A    between atoms: _445  and  _447
REMARK  184  A    between atoms: _447  and  _448
REMARK  185  A    between atoms: _447  and  _450
REMARK  186  A    between atoms: _450  and  _451
REMARK  187  A    between atoms: _451  and  _452
REMARK  188  A    between atoms: _452  and  _453
REMARK  189  A    between atoms: _453  and  _454
REMARK  190  A    between atoms: _458  and  _460
REMARK  191  A    between atoms: _460  and  _461
REMARK  192  A    between atoms: _460  and  _463
REMARK  193  A    between atoms: _463  and  _464
REMARK  194  A    between atoms: _469  and  _471
REMARK  195  A    between atoms: _471  and  _472
REMARK  196  A    between atoms: _474  and  _476
REMARK  197  A    between atoms: _476  and  _477
REMARK  198  A    between atoms: _476  and  _479
REMARK  199  A    between atoms: _479  and  _480
REMARK  200  A    between atoms: _483  and  _485
REMARK  201  A    between atoms: _485  and  _486
REMARK  202  A    between atoms: _485  and  _488
REMARK  203  A    between atoms: _488  and  _489
REMARK  204  A    between atoms: _494  and  _496
REMARK  205  A    between atoms: _496  and  _497
REMARK  206  A    between atoms: _496  and  _499
REMARK  207  A    between atoms: _499  and  _500
REMARK  208  A    between atoms: _503  and  _505
REMARK  209  A    between atoms: _505  and  _506
REMARK  210  A    between atoms: _505  and  _508
REMARK  211  A    between atoms: _508  and  _509
REMARK  212  A    between atoms: _515  and  _517
REMARK  213  A    between atoms: _517  and  _518
REMARK  214  A    between atoms: _517  and  _520
REMARK  215  A    between atoms: _523  and  _525
REMARK  216  A    between atoms: _525  and  _526
REMARK  217  A    between atoms: _525  and  _528
REMARK  218  A    between atoms: _528  and  _529
REMARK  219  A    between atoms: _534  and  _536
REMARK  220  A    between atoms: _536  and  _537
REMARK  221  A    between atoms: _536  and  _539
REMARK  222  A    between atoms: _539  and  _540
REMARK  223  A    between atoms: _540  and  _541
REMARK  224  A    between atoms: _541  and  _542
REMARK  225  A    between atoms: _551  and  _553
REMARK  226  A    between atoms: _553  and  _554
REMARK  227  A    between atoms: _553  and  _556
REMARK  228  A    between atoms: _556  and  _557
REMARK  229  A    between atoms: _562  and  _564
REMARK  230  A    between atoms: _564  and  _565
REMARK  231  A    between atoms: _564  and  _567
REMARK  232  A    between atoms: _569  and  _571
REMARK  233  A    between atoms: _571  and  _572
REMARK  234  A    between atoms: _571  and  _574
REMARK  235  A    between atoms: _574  and  _575
REMARK  236  A    between atoms: _575  and  _576
REMARK  237  A    between atoms: _578  and  _580
REMARK  238  A    between atoms: _580  and  _581
REMARK  239  A    between atoms: _580  and  _583
REMARK  240  A    between atoms: _583  and  _584
REMARK  241  A    between atoms: _587  and  _589
REMARK  242  A    between atoms: _589  and  _590
REMARK  243  A    between atoms: _589  and  _592
REMARK  244  A    between atoms: _592  and  _593
REMARK  245  A    between atoms: _593  and  _594
REMARK  246  A    between atoms: _594  and  _595
REMARK  247  A    between atoms: _595  and  _596
REMARK  248  A    between atoms: _600  and  _602
REMARK  249  A    between atoms: _602  and  _603
REMARK  250  A    between atoms: _602  and  _605
REMARK  251  A    between atoms: _608  and  _610
REMARK  252  A    between atoms: _610  and  _611
REMARK  253  A    between atoms: _614  and  _616
REMARK  254  A    between atoms: _616  and  _617
REMARK  255  A    between atoms: _616  and  _619
REMARK  256  A    between atoms: _619  and  _620
REMARK  257  A    between atoms: _623  and  _625
REMARK  258  A    between atoms: _625  and  _626
REMARK  259  A    between atoms: _625  and  _628
REMARK  260  A    between atoms: _628  and  _629
REMARK  261  A    between atoms: _635  and  _637
REMARK  262  A    between atoms: _637  and  _638
REMARK                            x       y       z     vdW  Elec       q    Type
REMARK                         _______ _______ _______ _____ _____    ______ ____
ROOT
ATOM      1  CA  TYR A   7      27.237  -5.630  25.323  0.00  0.00    +0.153 C 
ENDROOT
BRANCH   1   2
ATOM      2  C   TYR A   7      26.678  -4.444  26.103  0.00  0.00    +0.241 C 
ATOM      3  O   TYR A   7      27.419  -3.723  26.773  0.00  0.00    -0.273 OA
ATOM      4  N   MET A   8      25.367  -4.257  26.001  0.00  0.00    -0.297 N 
ATOM      5  H   MET A   8      24.806  -4.935  25.446  0.00  0.00    +0.150 HD
BRANCH   4   6
ATOM      6  CA  MET A   8      24.686  -3.139  26.637  0.00  0.00    +0.149 C 
BRANCH   6   7
ATOM      7  C   MET A   8      23.830  -3.678  27.777  0.00  0.00    +0.241 C 
ATOM      8  N   LYS A   9      24.352  -3.567  28.996  0.00  0.00    -0.297 N 
ATOM      9  H   LYS A   9      25.230  -3.021  29.111  0.00  0.00    +0.150 HD
ATOM     10  O   MET A   8      22.732  -4.188  27.554  0.00  0.00    -0.273 OA
BRANCH   8  11
ATOM     11  CA  LYS A   9      23.748  -4.179  30.189  0.00  0.00    +0.149 C 
BRANCH  11  12
ATOM     12  C   LYS A   9      22.235  -3.967  30.315  0.00  0.00    +0.241 C 
ATOM     13  O   LYS A   9      21.483  -4.913  30.581  0.00  0.00    -0.273 OA
ATOM     14  N   HIS A  10      21.799  -2.728  30.110  0.00  0.00    -0.297 N 
ATOM     15  H   HIS A  10      22.462  -2.010  29.756  0.00  0.00    +0.150 HD
BRANCH  14  16
ATOM     16  CA  HIS A  10      20.413  -2.350  30.369  0.00  0.00    +0.155 C 
BRANCH  16  17
ATOM     17  C   HIS A  10      19.538  -2.305  29.119  0.00  0.00    +0.241 C 
ATOM     18  O   HIS A  10      18.461  -1.705  29.128  0.00  0.00    -0.273 OA
ATOM     19  N   GLY A  11      20.002  -2.958  28.056  0.00  0.00    -0.295 N 
ATOM     20  H   GLY A  11      20.949  -3.385  28.107  0.00  0.00    +0.150 HD
BRANCH  19  21
ATOM     21  CA  GLY A  11      19.233  -3.099  26.819  0.00  0.00    +0.176 C 
BRANCH  21  22
ATOM     22  C   GLY A  11      18.855  -1.771  26.189  0.00  0.00    +0.243 C 
ATOM     23  O   GLY A  11      19.644  -0.815  26.203  0.00  0.00    -0.273 OA
ATOM     24  N   ASP A  12      17.647  -1.708  25.635  0.00  0.00    -0.297 N 
ATOM     25  H   ASP A  12      17.022  -2.539  25.667  0.00  0.00    +0.150 HD
BRANCH  24  26
ATOM     26  CA  ASP A  12      17.189  -0.485  24.983  0.00  0.00    +0.148 C 
BRANCH  26  27
ATOM     27  C   ASP A  12      16.454   0.443  25.947  0.00  0.00    +0.227 C 
ATOM     28  O   ASP A  12      15.860  -0.003  26.938  0.00  0.00    -0.286 OA
ENDBRANCH  26  27
BRANCH  26  29
ATOM     29  CB  ASP A  12      16.367  -0.785  23.714  0.00  0.00    +0.142 C 
BRANCH  29  30
ATOM     30  CG  ASP A  12      14.961  -1.278  24.016  0.00  0.00    +0.367 C 
ATOM     31  OD2 ASP A  12      14.078  -0.449  24.327  0.00  0.00    -0.246 OA
ATOM     32  OD1 ASP A  12      14.737  -2.503  23.934  0.00  0.00    -0.246 OA
ENDBRANCH  29  30
ENDBRANCH  26  29
ENDBRANCH  24  26
ENDBRANCH  21  22
ENDBRANCH  19  21
ENDBRANCH  16  17
BRANCH  16  33
ATOM     33  CB  HIS A  10      20.373  -1.025  31.137  0.00  0.00    +0.076 C 
BRANCH  33  34
ATOM     34  CG  HIS A  10      21.000  -1.108  32.492  0.00  0.00    +0.082 A 
ATOM     35  ND1 HIS A  10      20.458  -1.856  33.515  0.00  0.00    -0.227 NA
ATOM     36  CE1 HIS A  10      21.218  -1.748  34.589  0.00  0.00    +0.199 A 
ATOM     37  NE2 HIS A  10      22.240  -0.964  34.297  0.00  0.00    -0.221 NA
ATOM     38  CD2 HIS A  10      22.127  -0.550  32.992  0.00  0.00    +0.115 A 
ENDBRANCH  33  34
ENDBRANCH  16  33
ENDBRANCH  14  16
ENDBRANCH  11  12
BRANCH  11  39
ATOM     39  CB  LYS A   9      24.456  -3.672  31.455  0.00  0.00    +0.029 C 
BRANCH  39  40
ATOM     40  CG  LYS A   9      23.934  -4.251  32.780  0.00  0.00    +0.000 C 
BRANCH  40  41
ATOM     41  CD  LYS A   9      24.125  -5.755  32.850  0.00  0.00    -0.024 C 
BRANCH  41  42
ATOM     42  CE  LYS A   9      23.696  -6.303  34.193  0.00  0.00    -0.086 C 
BRANCH  42  43
ATOM     43  NZ  LYS A   9      23.562  -7.782  34.128  0.00  0.00    +0.380 N 
ATOM     44  HZ1 LYS A   9      23.267  -8.143  35.058  0.00  0.00    -0.089 HD
ATOM     45  HZ2 LYS A   9      24.477  -8.201  33.867  0.00  0.00    -0.089 HD
ATOM     46  HZ3 LYS A   9      22.848  -8.033  33.415  0.00  0.00    -0.089 HD
ENDBRANCH  42  43
ENDBRANCH  41  42
ENDBRANCH  40  41
ENDBRANCH  39  40
ENDBRANCH  11  39
ENDBRANCH   8  11
ENDBRANCH   6   7
BRANCH   6  47
ATOM     47  CB  MET A   8      23.826  -2.392  25.610  0.00  0.00    +0.041 C 
BRANCH  47  48
ATOM     48  CG  MET A   8      24.612  -1.667  24.507  0.00  0.00    +0.060 C 
BRANCH  48  49
ATOM     49  SD  MET A   8      25.494  -0.199  25.087  0.00  0.00    -0.139 S 
ATOM     50  CE  MET A   8      27.199  -0.746  24.989  0.00  0.00    +0.069 C 
ENDBRANCH  48  49
ENDBRANCH  47  48
ENDBRANCH   6  47
ENDBRANCH   4   6
ENDBRANCH   1   2
BRANCH   1  52
ATOM     51  C   PRO A   6      28.405  -4.352  23.603  0.00  0.00    +0.241 C 
ATOM     52  N   TYR A   7      28.439  -5.222  24.608  0.00  0.00    -0.297 N 
ATOM     53  H   TYR A   7      29.354  -5.625  24.893  0.00  0.00    +0.150 HD
ATOM     54  O   PRO A   6      27.368  -3.832  23.185  0.00  0.00    -0.273 OA
BRANCH  51  57
ATOM     55  C   LEU A   5      29.156  -4.939  20.791  0.00  0.00    +0.244 C 
ATOM     56  N   PRO A   6      29.533  -3.861  21.513  0.00  0.00    -0.272 N 
ATOM     57  CA  PRO A   6      29.734  -4.012  22.951  0.00  0.00    +0.152 C 
ATOM     58  CB  PRO A   6      30.194  -2.621  23.405  0.00  0.00    +0.031 C 
ATOM     59  CG  PRO A   6      30.582  -1.890  22.163  0.00  0.00    +0.024 C 
ATOM     60  CD  PRO A   6      29.752  -2.472  21.067  0.00  0.00    +0.094 C 
ATOM     61  O   LEU A   5      29.031  -6.060  21.282  0.00  0.00    -0.273 OA
BRANCH  55  62
ATOM     62  CA  LEU A   5      28.858  -4.731  19.310  0.00  0.00    +0.149 C 
BRANCH  62  64
ATOM     63  C   VAL A   4      29.927  -6.098  17.569  0.00  0.00    +0.241 C 
ATOM     64  N   LEU A   5      29.076  -5.980  18.586  0.00  0.00    -0.297 N 
ATOM     65  H   LEU A   5      28.539  -6.821  18.880  0.00  0.00    +0.150 HD
ATOM     66  O   VAL A   4      30.659  -5.186  17.192  0.00  0.00    -0.273 OA
BRANCH  63  67
ATOM     67  CA  VAL A   4      29.941  -7.460  16.874  0.00  0.00    +0.149 C 
BRANCH  67  70
ATOM     68  C   VAL A   3      28.369  -7.911  15.041  0.00  0.00    +0.241 C 
ATOM     69  O   VAL A   3      27.553  -8.463  15.781  0.00  0.00    -0.273 OA
ATOM     70  N   VAL A   4      29.505  -7.367  15.476  0.00  0.00    -0.297 N 
ATOM     71  H   VAL A   4      30.106  -6.856  14.798  0.00  0.00    +0.150 HD
BRANCH  68  72
ATOM     72  CA  VAL A   3      28.113  -7.822  13.541  0.00  0.00    +0.149 C 
BRANCH  72  74
ATOM     73  C   LEU A   2      28.507  -9.769  12.104  0.00  0.00    +0.241 C 
ATOM     74  N   VAL A   3      27.788  -9.156  13.044  0.00  0.00    -0.297 N 
ATOM     75  H   VAL A   3      26.962  -9.648  13.440  0.00  0.00    +0.150 HD
ATOM     76  O   LEU A   2      29.471  -9.250  11.538  0.00  0.00    -0.273 OA
BRANCH  73  77
ATOM     77  CA  LEU A   2      28.078 -11.185  11.760  0.00  0.00    +0.149 C 
BRANCH  77  79
ATOM     78  C   PRO A   1      27.358 -11.902   9.530  0.00  0.00    +0.239 C 
ATOM     79  N   LEU A   2      28.327 -11.509  10.354  0.00  0.00    -0.297 N 
ATOM     80  H   LEU A   2      29.296 -11.429   9.986  0.00  0.00    +0.150 HD
ATOM     81  O   PRO A   1      26.177 -11.989   9.865  0.00  0.00    -0.274 OA
BRANCH  78  83
ATOM     82  N   PRO A   1      26.914 -13.324   7.562  0.00  0.00    -0.210 NA
ATOM     83  CA  PRO A   1      27.775 -12.278   8.109  0.00  0.00    +0.149 C 
ATOM     84  CB  PRO A   1      27.537 -11.105   7.156  0.00  0.00    +0.028 C 
ATOM     85  CG  PRO A   1      27.159 -11.760   5.860  0.00  0.00    +0.021 C 
ATOM     86  CD  PRO A   1      26.303 -12.909   6.282  0.00  0.00    +0.089 C 
ENDBRANCH  78  83
ENDBRANCH  77  79
BRANCH  77  87
ATOM     87  CB  LEU A   2      28.810 -12.169  12.688  0.00  0.00    +0.029 C 
BRANCH  87  88
ATOM     88  CG  LEU A   2      28.600 -13.685  12.570  0.00  0.00    +0.002 C 
ATOM     89  CD2 LEU A   2      29.492 -14.426  13.571  0.00  0.00    +0.000 C 
ATOM     90  CD1 LEU A   2      27.148 -14.075  12.764  0.00  0.00    +0.000 C 
ENDBRANCH  87  88
ENDBRANCH  77  87
ENDBRANCH  73  77
ENDBRANCH  72  74
BRANCH  72  91
ATOM     91  CB  VAL A   3      26.975  -6.802  13.253  0.00  0.00    +0.027 C 
ATOM     92  CG2 VAL A   3      27.372  -5.415  13.713  0.00  0.00    +0.002 C 
ATOM     93  CG1 VAL A   3      26.620  -6.783  11.763  0.00  0.00    +0.002 C 
ENDBRANCH  72  91
ENDBRANCH  68  72
ENDBRANCH  67  70
BRANCH  67  94
ATOM     94  CB  VAL A   4      31.340  -8.112  16.991  0.00  0.00    +0.027 C 
ATOM     95  CG2 VAL A   4      31.718  -8.320  18.456  0.00  0.00    +0.002 C 
ATOM     96  CG1 VAL A   4      31.379  -9.435  16.234  0.00  0.00    +0.002 C 
ENDBRANCH  67  94
ENDBRANCH  63  67
ENDBRANCH  62  64
BRANCH  62  97
ATOM     97  CB  LEU A   5      27.400  -4.292  19.142  0.00  0.00    +0.029 C 
BRANCH  97  98
ATOM     98  CG  LEU A   5      26.983  -4.365  17.670  0.00  0.00    +0.002 C 
ATOM     99  CD2 LEU A   5      25.729  -5.165  17.499  0.00  0.00    +0.000 C 
ATOM    100  CD1 LEU A   5      26.918  -3.007  16.981  0.00  0.00    +0.000 C 
ENDBRANCH  97  98
ENDBRANCH  62  97
ENDBRANCH  55  62
ENDBRANCH  51  57
ENDBRANCH   1  52
BRANCH   1 101
ATOM    101  CB  TYR A   7      27.538  -6.805  26.266  0.00  0.00    +0.055 C 
BRANCH 101 102
ATOM    102  CG  TYR A   7      26.327  -7.341  26.996  0.00  0.00    -0.020 A 
ATOM    103  CD2 TYR A   7      26.131  -7.074  28.351  0.00  0.00    -0.001 A 
ATOM    104  CE2 TYR A   7      25.020  -7.565  29.024  0.00  0.00    +0.036 A 
ATOM    105  CZ  TYR A   7      24.092  -8.324  28.340  0.00  0.00    +0.134 A 
ATOM    106  CE1 TYR A   7      24.255  -8.594  26.995  0.00  0.00    +0.036 A 
ATOM    107  CD1 TYR A   7      25.371  -8.106  26.330  0.00  0.00    -0.001 A 
BRANCH 105 108
ATOM    108  OH  TYR A   7      22.989  -8.811  28.997  0.00  0.00    -0.506 OA
ATOM    109  HH  TYR A   7      23.021  -8.531  29.946  0.00  0.00    +0.292 HD
ENDBRANCH 105 108
ENDBRANCH 101 102
ENDBRANCH   1 101
TORSDOF 43
REMARK  Name = ../refined-set-2016/3u6i/3u6i_pocket.pdb
REMARK  262 active torsions:
REMARK  status: ('A' for Active; 'I' for Inactive)
REMARK    1  A    between atoms: _1  and  _3
REMARK    2  A    between atoms: _3  and  _4
REMARK    3  A    between atoms: _3  and  _6
REMARK    4  A    between atoms: _9  and  _11
REMARK    5  A    between atoms: _11  and  _12
REMARK    6  A    between atoms: _11  and  _14
REMARK    7  A    between atoms: _17  and  _19
REMARK    8  A    between atoms: _19  and  _20
REMARK    9  A    between atoms: _19  and  _22
REMARK   10  A    between atoms: _22  and  _23
REMARK   11  A    between atoms: _26  and  _28
REMARK   12  A    between atoms: _28  and  _29
REMARK   13  A    between atoms: _31  and  _33
REMARK   14  A    between atoms: _33  and  _34
REMARK   15  A    between atoms: _33  and  _36
REMARK   16  A    between atoms: _36  and  _37
REMARK   17  A    between atoms: _37  and  _38
REMARK   18  A    between atoms: _38  and  _39
REMARK   19  A    between atoms: _48  and  _50
REMARK   20  A    between atoms: _50  and  _51
REMARK   21  A    between atoms: _53  and  _55
REMARK   22  A    between atoms: _55  and  _56
REMARK   23  A    between atoms: _55  and  _58
REMARK   24  A    between atoms: _58  and  _59
REMARK   25  A    between atoms: _64  and  _66
REMARK   26  A    between atoms: _66  and  _67
REMARK   27  A    between atoms: _66  and  _69
REMARK   28  A    between atoms: _69  and  _70
REMARK   29  A    between atoms: _76  and  _78
REMARK   30  A    between atoms: _78  and  _79
REMARK   31  A    between atoms: _81  and  _83
REMARK   32  A    between atoms: _83  and  _84
REMARK   33  A    between atoms: _83  and  _86
REMARK   34  A    between atoms: _88  and  _90
REMARK   35  A    between atoms: _90  and  _91
REMARK   36  A    between atoms: _90  and  _93
REMARK   37  A    between atoms: _96  and  _98
REMARK   38  A    between atoms: _98  and  _99
REMARK   39  A    between atoms: _98  and  _101
REMARK   40  A    between atoms: _101  and  _102
REMARK   41  A    between atoms: _107  and  _108
REMARK   42  A    between atoms: _110  and  _112
REMARK   43  A    between atoms: _112  and  _113
REMARK   44  A    between atoms: _112  and  _115
REMARK   45  A    between atoms: _115  and  _116
REMARK   46  A    between atoms: _121  and  _123
REMARK   47  A    between atoms: _123  and  _124
REMARK   48  A    between atoms: _123  and  _126
REMARK   49  A    between atoms: _126  and  _127
REMARK   50  A    between atoms: _132  and  _134
REMARK   51  A    between atoms: _134  and  _135
REMARK   52  A    between atoms: _134  and  _137
REMARK   53  A    between atoms: _139  and  _141
REMARK   54  A    between atoms: _141  and  _142
REMARK   55  A    between atoms: _145  and  _147
REMARK   56  A    between atoms: _147  and  _148
REMARK   57  A    between atoms: _147  and  _150
REMARK   58  A    between atoms: _153  and  _155
REMARK   59  A    between atoms: _155  and  _156
REMARK   60  A    between atoms: _155  and  _158
REMARK   61  A    between atoms: _158  and  _159
REMARK   62  A    between atoms: _159  and  _160
REMARK   63  A    between atoms: _160  and  _161
REMARK   64  A    between atoms: _161  and  _162
REMARK   65  A    between atoms: _166  and  _168
REMARK   66  A    between atoms: _168  and  _169
REMARK   67  A    between atoms: _168  and  _171
REMARK   68  A    between atoms: _171  and  _172
REMARK   69  A    between atoms: _174  and  _176
REMARK   70  A    between atoms: _176  and  _177
REMARK   71  A    between atoms: _176  and  _179
REMARK   72  A    between atoms: _179  and  _180
REMARK   73  A    between atoms: _183  and  _185
REMARK   74  A    between atoms: _185  and  _186
REMARK   75  A    between atoms: _185  and  _188
REMARK   76  A    between atoms: _188  and  _189
REMARK   77  A    between atoms: _192  and  _194
REMARK   78  A    between atoms: _194  and  _195
REMARK   79  A    between atoms: _194  and  _197
REMARK   80  A    between atoms: _197  and  _198
REMARK   81  A    between atoms: _198  and  _199
REMARK   82  A    between atoms: _202  and  _204
REMARK   83  A    between atoms: _204  and  _205
REMARK   84  A    between atoms: _204  and  _207
REMARK   85  A    between atoms: _210  and  _212
REMARK   86  A    between atoms: _212  and  _213
REMARK   87  A    between atoms: _212  and  _215
REMARK   88  A    between atoms: _215  and  _216
REMARK   89  A    between atoms: _216  and  _217
REMARK   90  A    between atoms: _222  and  _224
REMARK   91  A    between atoms: _224  and  _225
REMARK   92  A    between atoms: _224  and  _227
REMARK   93  A    between atoms: _227  and  _228
REMARK   94  A    between atoms: _234  and  _236
REMARK   95  A    between atoms: _236  and  _237
REMARK   96  A    between atoms: _236  and  _239
REMARK   97  A    between atoms: _239  and  _240
REMARK   98  A    between atoms: _243  and  _245
REMARK   99  A    between atoms: _245  and  _246
REMARK  100  A    between atoms: _245  and  _248
REMARK  101  A    between atoms: _248  and  _249
REMARK  102  A    between atoms: _252  and  _254
REMARK  103  A    between atoms: _254  and  _255
REMARK  104  A    between atoms: _254  and  _257
REMARK  105  A    between atoms: _257  and  _258
REMARK  106  A    between atoms: _258  and  _259
REMARK  107  A    between atoms: _262  and  _264
REMARK  108  A    between atoms: _264  and  _265
REMARK  109  A    between atoms: _267  and  _269
REMARK  110  A    between atoms: _269  and  _270
REMARK  111  A    between atoms: _269  and  _272
REMARK  112  A    between atoms: _272  and  _273
REMARK  113  A    between atoms: _276  and  _278
REMARK  114  A    between atoms: _278  and  _279
REMARK  115  A    between atoms: _278  and  _281
REMARK  116  A    between atoms: _281  and  _282
REMARK  117  A    between atoms: _285  and  _287
REMARK  118  A    between atoms: _287  and  _288
REMARK  119  A    between atoms: _287  and  _290
REMARK  120  A    between atoms: _290  and  _291
REMARK  121  A    between atoms: _291  and  _292
REMARK  122  A    between atoms: _294  and  _296
REMARK  123  A    between atoms: _296  and  _297
REMARK  124  A    between atoms: _296  and  _299
REMARK  125  A    between atoms: _299  and  _300
REMARK  126  A    between atoms: _300  and  _301
REMARK  127  A    between atoms: _301  and  _302
REMARK  128  A    between atoms: _302  and  _303
REMARK  129  A    between atoms: _307  and  _309
REMARK  130  A    between atoms: _309  and  _310
REMARK  131  A    between atoms: _309  and  _312
REMARK  132  A    between atoms: _312  and  _313
REMARK  133  A    between atoms: _319  and  _321
REMARK  134  A    between atoms: _321  and  _322
REMARK  135  A    between atoms: _321  and  _324
REMARK  136  A    between atoms: _327  and  _329
REMARK  137  A    between atoms: _329  and  _330
REMARK  138  A    between atoms: _329  and  _332
REMARK  139  A    between atoms: _332  and  _333
REMARK  140  A    between atoms: _336  and  _338
REMARK  141  A    between atoms: _338  and  _339
REMARK  142  A    between atoms: _338  and  _341
REMARK  143  A    between atoms: _341  and  _342
REMARK  144  A    between atoms: _344  and  _346
REMARK  145  A    between atoms: _346  and  _347
REMARK  146  A    between atoms: _346  and  _349
REMARK  147  A    between atoms: _349  and  _350
REMARK  148  A    between atoms: _353  and  _355
REMARK  149  A    between atoms: _355  and  _356
REMARK  150  A    between atoms: _358  and  _360
REMARK  151  A    between atoms: _360  and  _361
REMARK  152  A    between atoms: _360  and  _363
REMARK  153  A    between atoms: _363  and  _364
REMARK  154  A    between atoms: _367  and  _369
REMARK  155  A    between atoms: _369  and  _370
REMARK  156  A    between atoms: _369  and  _372
REMARK  157  A    between atoms: _375  and  _376
REMARK  158  A    between atoms: _381  and  _383
REMARK  159  A    between atoms: _383  and  _384
REMARK  160  A    between atoms: _383  and  _386
REMARK  161  A    between atoms: _386  and  _387
REMARK  162  A    between atoms: _390  and  _392
REMARK  163  A    between atoms: _392  and  _393
REMARK  164  A    between atoms: _392  and  _395
REMARK  165  A    between atoms: _398  and  _400
REMARK  166  A    between atoms: _400  and  _401
REMARK  167  A    between atoms: _400  and  _403
REMARK  168  A    between atoms: _406  and  _408
REMARK  169  A    between atoms: _408  and  _409
REMARK  170  A    between atoms: _408  and  _411
REMARK  171  A    between atoms: _411  and  _412
REMARK  172  A    between atoms: _416  and  _417
REMARK  173  A    between atoms: _422  and  _424
REMARK  174  A    between atoms: _424  and  _425
REMARK  175  A    between atoms: _424  and  _427
REMARK  176  A    between atoms: _427  and  _428
REMARK  177  A    between atoms: _433  and  _434
REMARK  178  A    between atoms: _436  and  _438
REMARK  179  A    between atoms: _438  and  _439
REMARK  180  A    between atoms: _438  and  _441
REMARK  181  A    between atoms: _441  and  _442
REMARK  182  A    between atoms: _442  and  _443
REMARK  183  A    between atoms: _445  and  _447
REMARK  184  A    between atoms: _447  and  _448
REMARK  185  A    between atoms: _447  and  _450
REMARK  186  A    between atoms: _450  and  _451
REMARK  187  A    between atoms: _451  and  _452
REMARK  188  A    between atoms: _452  and  _453
REMARK  189  A    between atoms: _453  and  _454
REMARK  190  A    between atoms: _458  and  _460
REMARK  191  A    between atoms: _460  and  _461
REMARK  192  A    between atoms: _460  and  _463
REMARK  193  A    between atoms: _463  and  _464
REMARK  194  A    between atoms: _469  and  _471
REMARK  195  A    between atoms: _471  and  _472
REMARK  196  A    between atoms: _474  and  _476
REMARK  197  A    between atoms: _476  and  _477
REMARK  198  A    between atoms: _476  and  _479
REMARK  199  A    between atoms: _479  and  _480
REMARK  200  A    between atoms: _483  and  _485
REMARK  201  A    between atoms: _485  and  _486
REMARK  202  A    between atoms: _485  and  _488
REMARK  203  A    between atoms: _488  and  _489
REMARK  204  A    between atoms: _494  and  _496
REMARK  205  A    between atoms: _496  and  _497
REMARK  206  A    between atoms: _496  and  _499
REMARK  207  A    between atoms: _499  and  _500
REMARK  208  A    between atoms: _503  and  _505
REMARK  209  A    between atoms: _505  and  _506
REMARK  210  A    between atoms: _505  and  _508
REMARK  211  A    between atoms: _508  and  _509
REMARK  212  A    between atoms: _515  and  _517
REMARK  213  A    between atoms: _517  and  _518
REMARK  214  A    between atoms: _517  and  _520
REMARK  215  A    between atoms: _523  and  _525
REMARK  216  A    between atoms: _525  and  _526
REMARK  217  A    between atoms: _525  and  _528
REMARK  218  A    between atoms: _528  and  _529
REMARK  219  A    between atoms: _534  and  _536
REMARK  220  A    between atoms: _536  and  _537
REMARK  221  A    between atoms: _536  and  _539
REMARK  222  A    between atoms: _539  and  _540
REMARK  223  A    between atoms: _540  and  _541
REMARK  224  A    between atoms: _541  and  _542
REMARK  225  A    between atoms: _551  and  _553
REMARK  226  A    between atoms: _553  and  _554
REMARK  227  A    between atoms: _553  and  _556
REMARK  228  A    between atoms: _556  and  _557
REMARK  229  A    between atoms: _562  and  _564
REMARK  230  A    between atoms: _564  and  _565
REMARK  231  A    between atoms: _564  and  _567
REMARK  232  A    between atoms: _569  and  _571
REMARK  233  A    between atoms: _571  and  _572
REMARK  234  A    between atoms: _571  and  _574
REMARK  235  A    between atoms: _574  and  _575
REMARK  236  A    between atoms: _575  and  _576
REMARK  237  A    between atoms: _578  and  _580
REMARK  238  A    between atoms: _580  and  _581
REMARK  239  A    between atoms: _580  and  _583
REMARK  240  A    between atoms: _583  and  _584
REMARK  241  A    between atoms: _587  and  _589
REMARK  242  A    between atoms: _589  and  _590
REMARK  243  A    between atoms: _589  and  _592
REMARK  244  A    between atoms: _592  and  _593
REMARK  245  A    between atoms: _593  and  _594
REMARK  246  A    between atoms: _594  and  _595
REMARK  247  A    between atoms: _595  and  _596
REMARK  248  A    between atoms: _600  and  _602
REMARK  249  A    between atoms: _602  and  _603
REMARK  250  A    between atoms: _602  and  _605
REMARK  251  A    between atoms: _608  and  _610
REMARK  252  A    between atoms: _610  and  _611
REMARK  253  A    between atoms: _614  and  _616
REMARK  254  A    between atoms: _616  and  _617
REMARK  255  A    between atoms: _616  and  _619
REMARK  256  A    between atoms: _619  and  _620
REMARK  257  A    between atoms: _623  and  _625
REMARK  258  A    between atoms: _625  and  _626
REMARK  259  A    between atoms: _625  and  _628
REMARK  260  A    between atoms: _628  and  _629
REMARK  261  A    between atoms: _635  and  _637
REMARK  262  A    between atoms: _637  and  _638
REMARK                            x       y       z     vdW  Elec       q    Type
REMARK                         _______ _______ _______ _____ _____    ______ ____
ROOT
ATOM      1  CB  ASN A   1      12.719  -2.395  27.262  0.00  0.00    +0.110 C 
ENDROOT
BRANCH   1   2
ATOM      2  CG  ASN A   1      11.860  -3.016  26.161  0.00  0.00    +0.221 C 
ATOM      3  ND2 ASN A   1      10.544  -2.945  26.323  0.00  0.00    -0.329 N 
ATOM      4 HD21 ASN A   1      10.148  -2.486  27.168  0.00  0.00    +0.145 HD
ATOM      5 HD22 ASN A   1       9.909  -3.348  25.605  0.00  0.00    +0.145 HD
ATOM      6  OD1 ASN A   1      12.380  -3.550  25.175  0.00  0.00    -0.275 OA
ENDBRANCH   1   2
BRANCH   1   7
ATOM      7  CA  ASN A   1      12.182  -1.040  27.732  0.00  0.00    +0.142 C 
BRANCH   7   8
ATOM      8  N   ASN A   1      12.469   0.005  26.758  0.00  0.00    -0.239 NA
ATOM      9  H   ASN A   1      13.139  -0.182  25.985  0.00  0.00    +0.142 HD
ENDBRANCH   7   8
BRANCH   7  10
ATOM     10  C   ASN A   1      12.672  -0.690  29.136  0.00  0.00    +0.225 C 
ATOM     11  O   ASN A   1      12.011  -1.016  30.120  0.00  0.00    -0.287 OA
ENDBRANCH   7  10
ENDBRANCH   1   7
TORSDOF 4
REMARK  Name = ../refined-set-2016/3u6i/3u6i_pocket.pdb
REMARK  262 active torsions:
REMARK  status: ('A' for Active; 'I' for Inactive)
REMARK    1  A    between atoms: _1  and  _3
REMARK    2  A    between atoms: _3  and  _4
REMARK    3  A    between atoms: _3  and  _6
REMARK    4  A    between atoms: _9  and  _11
REMARK    5  A    between atoms: _11  and  _12
REMARK    6  A    between atoms: _11  and  _14
REMARK    7  A    between atoms: _17  and  _19
REMARK    8  A    between atoms: _19  and  _20
REMARK    9  A    between atoms: _19  and  _22
REMARK   10  A    between atoms: _22  and  _23
REMARK   11  A    between atoms: _26  and  _28
REMARK   12  A    between atoms: _28  and  _29
REMARK   13  A    between atoms: _31  and  _33
REMARK   14  A    between atoms: _33  and  _34
REMARK   15  A    between atoms: _33  and  _36
REMARK   16  A    between atoms: _36  and  _37
REMARK   17  A    between atoms: _37  and  _38
REMARK   18  A    between atoms: _38  and  _39
REMARK   19  A    between atoms: _48  and  _50
REMARK   20  A    between atoms: _50  and  _51
REMARK   21  A    between atoms: _53  and  _55
REMARK   22  A    between atoms: _55  and  _56
REMARK   23  A    between atoms: _55  and  _58
REMARK   24  A    between atoms: _58  and  _59
REMARK   25  A    between atoms: _64  and  _66
REMARK   26  A    between atoms: _66  and  _67
REMARK   27  A    between atoms: _66  and  _69
REMARK   28  A    between atoms: _69  and  _70
REMARK   29  A    between atoms: _76  and  _78
REMARK   30  A    between atoms: _78  and  _79
REMARK   31  A    between atoms: _81  and  _83
REMARK   32  A    between atoms: _83  and  _84
REMARK   33  A    between atoms: _83  and  _86
REMARK   34  A    between atoms: _88  and  _90
REMARK   35  A    between atoms: _90  and  _91
REMARK   36  A    between atoms: _90  and  _93
REMARK   37  A    between atoms: _96  and  _98
REMARK   38  A    between atoms: _98  and  _99
REMARK   39  A    between atoms: _98  and  _101
REMARK   40  A    between atoms: _101  and  _102
REMARK   41  A    between atoms: _107  and  _108
REMARK   42  A    between atoms: _110  and  _112
REMARK   43  A    between atoms: _112  and  _113
REMARK   44  A    between atoms: _112  and  _115
REMARK   45  A    between atoms: _115  and  _116
REMARK   46  A    between atoms: _121  and  _123
REMARK   47  A    between atoms: _123  and  _124
REMARK   48  A    between atoms: _123  and  _126
REMARK   49  A    between atoms: _126  and  _127
REMARK   50  A    between atoms: _132  and  _134
REMARK   51  A    between atoms: _134  and  _135
REMARK   52  A    between atoms: _134  and  _137
REMARK   53  A    between atoms: _139  and  _141
REMARK   54  A    between atoms: _141  and  _142
REMARK   55  A    between atoms: _145  and  _147
REMARK   56  A    between atoms: _147  and  _148
REMARK   57  A    between atoms: _147  and  _150
REMARK   58  A    between atoms: _153  and  _155
REMARK   59  A    between atoms: _155  and  _156
REMARK   60  A    between atoms: _155  and  _158
REMARK   61  A    between atoms: _158  and  _159
REMARK   62  A    between atoms: _159  and  _160
REMARK   63  A    between atoms: _160  and  _161
REMARK   64  A    between atoms: _161  and  _162
REMARK   65  A    between atoms: _166  and  _168
REMARK   66  A    between atoms: _168  and  _169
REMARK   67  A    between atoms: _168  and  _171
REMARK   68  A    between atoms: _171  and  _172
REMARK   69  A    between atoms: _174  and  _176
REMARK   70  A    between atoms: _176  and  _177
REMARK   71  A    between atoms: _176  and  _179
REMARK   72  A    between atoms: _179  and  _180
REMARK   73  A    between atoms: _183  and  _185
REMARK   74  A    between atoms: _185  and  _186
REMARK   75  A    between atoms: _185  and  _188
REMARK   76  A    between atoms: _188  and  _189
REMARK   77  A    between atoms: _192  and  _194
REMARK   78  A    between atoms: _194  and  _195
REMARK   79  A    between atoms: _194  and  _197
REMARK   80  A    between atoms: _197  and  _198
REMARK   81  A    between atoms: _198  and  _199
REMARK   82  A    between atoms: _202  and  _204
REMARK   83  A    between atoms: _204  and  _205
REMARK   84  A    between atoms: _204  and  _207
REMARK   85  A    between atoms: _210  and  _212
REMARK   86  A    between atoms: _212  and  _213
REMARK   87  A    between atoms: _212  and  _215
REMARK   88  A    between atoms: _215  and  _216
REMARK   89  A    between atoms: _216  and  _217
REMARK   90  A    between atoms: _222  and  _224
REMARK   91  A    between atoms: _224  and  _225
REMARK   92  A    between atoms: _224  and  _227
REMARK   93  A    between atoms: _227  and  _228
REMARK   94  A    between atoms: _234  and  _236
REMARK   95  A    between atoms: _236  and  _237
REMARK   96  A    between atoms: _236  and  _239
REMARK   97  A    between atoms: _239  and  _240
REMARK   98  A    between atoms: _243  and  _245
REMARK   99  A    between atoms: _245  and  _246
REMARK  100  A    between atoms: _245  and  _248
REMARK  101  A    between atoms: _248  and  _249
REMARK  102  A    between atoms: _252  and  _254
REMARK  103  A    between atoms: _254  and  _255
REMARK  104  A    between atoms: _254  and  _257
REMARK  105  A    between atoms: _257  and  _258
REMARK  106  A    between atoms: _258  and  _259
REMARK  107  A    between atoms: _262  and  _264
REMARK  108  A    between atoms: _264  and  _265
REMARK  109  A    between atoms: _267  and  _269
REMARK  110  A    between atoms: _269  and  _270
REMARK  111  A    between atoms: _269  and  _272
REMARK  112  A    between atoms: _272  and  _273
REMARK  113  A    between atoms: _276  and  _278
REMARK  114  A    between atoms: _278  and  _279
REMARK  115  A    between atoms: _278  and  _281
REMARK  116  A    between atoms: _281  and  _282
REMARK  117  A    between atoms: _285  and  _287
REMARK  118  A    between atoms: _287  and  _288
REMARK  119  A    between atoms: _287  and  _290
REMARK  120  A    between atoms: _290  and  _291
REMARK  121  A    between atoms: _291  and  _292
REMARK  122  A    between atoms: _294  and  _296
REMARK  123  A    between atoms: _296  and  _297
REMARK  124  A    between atoms: _296  and  _299
REMARK  125  A    between atoms: _299  and  _300
REMARK  126  A    between atoms: _300  and  _301
REMARK  127  A    between atoms: _301  and  _302
REMARK  128  A    between atoms: _302  and  _303
REMARK  129  A    between atoms: _307  and  _309
REMARK  130  A    between atoms: _309  and  _310
REMARK  131  A    between atoms: _309  and  _312
REMARK  132  A    between atoms: _312  and  _313
REMARK  133  A    between atoms: _319  and  _321
REMARK  134  A    between atoms: _321  and  _322
REMARK  135  A    between atoms: _321  and  _324
REMARK  136  A    between atoms: _327  and  _329
REMARK  137  A    between atoms: _329  and  _330
REMARK  138  A    between atoms: _329  and  _332
REMARK  139  A    between atoms: _332  and  _333
REMARK  140  A    between atoms: _336  and  _338
REMARK  141  A    between atoms: _338  and  _339
REMARK  142  A    between atoms: _338  and  _341
REMARK  143  A    between atoms: _341  and  _342
REMARK  144  A    between atoms: _344  and  _346
REMARK  145  A    between atoms: _346  and  _347
REMARK  146  A    between atoms: _346  and  _349
REMARK  147  A    between atoms: _349  and  _350
REMARK  148  A    between atoms: _353  and  _355
REMARK  149  A    between atoms: _355  and  _356
REMARK  150  A    between atoms: _358  and  _360
REMARK  151  A    between atoms: _360  and  _361
REMARK  152  A    between atoms: _360  and  _363
REMARK  153  A    between atoms: _363  and  _364
REMARK  154  A    between atoms: _367  and  _369
REMARK  155  A    between atoms: _369  and  _370
REMARK  156  A    between atoms: _369  and  _372
REMARK  157  A    between atoms: _375  and  _376
REMARK  158  A    between atoms: _381  and  _383
REMARK  159  A    between atoms: _383  and  _384
REMARK  160  A    between atoms: _383  and  _386
REMARK  161  A    between atoms: _386  and  _387
REMARK  162  A    between atoms: _390  and  _392
REMARK  163  A    between atoms: _392  and  _393
REMARK  164  A    between atoms: _392  and  _395
REMARK  165  A    between atoms: _398  and  _400
REMARK  166  A    between atoms: _400  and  _401
REMARK  167  A    between atoms: _400  and  _403
REMARK  168  A    between atoms: _406  and  _408
REMARK  169  A    between atoms: _408  and  _409
REMARK  170  A    between atoms: _408  and  _411
REMARK  171  A    between atoms: _411  and  _412
REMARK  172  A    between atoms: _416  and  _417
REMARK  173  A    between atoms: _422  and  _424
REMARK  174  A    between atoms: _424  and  _425
REMARK  175  A    between atoms: _424  and  _427
REMARK  176  A    between atoms: _427  and  _428
REMARK  177  A    between atoms: _433  and  _434
REMARK  178  A    between atoms: _436  and  _438
REMARK  179  A    between atoms: _438  and  _439
REMARK  180  A    between atoms: _438  and  _441
REMARK  181  A    between atoms: _441  and  _442
REMARK  182  A    between atoms: _442  and  _443
REMARK  183  A    between atoms: _445  and  _447
REMARK  184  A    between atoms: _447  and  _448
REMARK  185  A    between atoms: _447  and  _450
REMARK  186  A    between atoms: _450  and  _451
REMARK  187  A    between atoms: _451  and  _452
REMARK  188  A    between atoms: _452  and  _453
REMARK  189  A    between atoms: _453  and  _454
REMARK  190  A    between atoms: _458  and  _460
REMARK  191  A    between atoms: _460  and  _461
REMARK  192  A    between atoms: _460  and  _463
REMARK  193  A    between atoms: _463  and  _464
REMARK  194  A    between atoms: _469  and  _471
REMARK  195  A    between atoms: _471  and  _472
REMARK  196  A    between atoms: _474  and  _476
REMARK  197  A    between atoms: _476  and  _477
REMARK  198  A    between atoms: _476  and  _479
REMARK  199  A    between atoms: _479  and  _480
REMARK  200  A    between atoms: _483  and  _485
REMARK  201  A    between atoms: _485  and  _486
REMARK  202  A    between atoms: _485  and  _488
REMARK  203  A    between atoms: _488  and  _489
REMARK  204  A    between atoms: _494  and  _496
REMARK  205  A    between atoms: _496  and  _497
REMARK  206  A    between atoms: _496  and  _499
REMARK  207  A    between atoms: _499  and  _500
REMARK  208  A    between atoms: _503  and  _505
REMARK  209  A    between atoms: _505  and  _506
REMARK  210  A    between atoms: _505  and  _508
REMARK  211  A    between atoms: _508  and  _509
REMARK  212  A    between atoms: _515  and  _517
REMARK  213  A    between atoms: _517  and  _518
REMARK  214  A    between atoms: _517  and  _520
REMARK  215  A    between atoms: _523  and  _525
REMARK  216  A    between atoms: _525  and  _526
REMARK  217  A    between atoms: _525  and  _528
REMARK  218  A    between atoms: _528  and  _529
REMARK  219  A    between atoms: _534  and  _536
REMARK  220  A    between atoms: _536  and  _537
REMARK  221  A    between atoms: _536  and  _539
REMARK  222  A    between atoms: _539  and  _540
REMARK  223  A    between atoms: _540  and  _541
REMARK  224  A    between atoms: _541  and  _542
REMARK  225  A    between atoms: _551  and  _553
REMARK  226  A    between atoms: _553  and  _554
REMARK  227  A    between atoms: _553  and  _556
REMARK  228  A    between atoms: _556  and  _557
REMARK  229  A    between atoms: _562  and  _564
REMARK  230  A    between atoms: _564  and  _565
REMARK  231  A    between atoms: _564  and  _567
REMARK  232  A    between atoms: _569  and  _571
REMARK  233  A    between atoms: _571  and  _572
REMARK  234  A    between atoms: _571  and  _574
REMARK  235  A    between atoms: _574  and  _575
REMARK  236  A    between atoms: _575  and  _576
REMARK  237  A    between atoms: _578  and  _580
REMARK  238  A    between atoms: _580  and  _581
REMARK  239  A    between atoms: _580  and  _583
REMARK  240  A    between atoms: _583  and  _584
REMARK  241  A    between atoms: _587  and  _589
REMARK  242  A    between atoms: _589  and  _590
REMARK  243  A    between atoms: _589  and  _592
REMARK  244  A    between atoms: _592  and  _593
REMARK  245  A    between atoms: _593  and  _594
REMARK  246  A    between atoms: _594  and  _595
REMARK  247  A    between atoms: _595  and  _596
REMARK  248  A    between atoms: _600  and  _602
REMARK  249  A    between atoms: _602  and  _603
REMARK  250  A    between atoms: _602  and  _605
REMARK  251  A    between atoms: _608  and  _610
REMARK  252  A    between atoms: _610  and  _611
REMARK  253  A    between atoms: _614  and  _616
REMARK  254  A    between atoms: _616  and  _617
REMARK  255  A    between atoms: _616  and  _619
REMARK  256  A    between atoms: _619  and  _620
REMARK  257  A    between atoms: _623  and  _625
REMARK  258  A    between atoms: _625  and  _626
REMARK  259  A    between atoms: _625  and  _628
REMARK  260  A    between atoms: _628  and  _629
REMARK  261  A    between atoms: _635  and  _637
REMARK  262  A    between atoms: _637  and  _638
REMARK                            x       y       z     vdW  Elec       q    Type
REMARK                         _______ _______ _______ _____ _____    ______ ____
ROOT
ATOM      1  CA  LEU A   1      26.077  11.848  13.582  0.00  0.00    +0.133 C 
ENDROOT
BRANCH   1   2
ATOM      2  N   LEU A   1      26.502  12.469  14.841  0.00  0.00    -0.239 NA
ATOM      3  H   LEU A   1      25.958  12.278  15.706  0.00  0.00    +0.142 HD
ENDBRANCH   1   2
BRANCH   1   4
ATOM      4  C   LEU A   1      25.794  12.888  12.497  0.00  0.00    +0.224 C 
ATOM      5  O   LEU A   1      26.186  12.706  11.340  0.00  0.00    -0.287 OA
ENDBRANCH   1   4
BRANCH   1   6
ATOM      6  CB  LEU A   1      24.867  10.924  13.792  0.00  0.00    +0.025 C 
BRANCH   6   7
ATOM      7  CG  LEU A   1      25.088   9.610  14.566  0.00  0.00    +0.002 C 
ATOM      8  CD2 LEU A   1      23.761   8.915  14.861  0.00  0.00    +0.000 C 
ATOM      9  CD1 LEU A   1      26.037   8.655  13.833  0.00  0.00    +0.000 C 
ENDBRANCH   6   7
ENDBRANCH   1   6
TORSDOF 4
REMARK  Name = ../refined-set-2016/3u6i/3u6i_pocket.pdb
REMARK  262 active torsions:
REMARK  status: ('A' for Active; 'I' for Inactive)
REMARK    1  A    between atoms: _1  and  _3
REMARK    2  A    between atoms: _3  and  _4
REMARK    3  A    between atoms: _3  and  _6
REMARK    4  A    between atoms: _9  and  _11
REMARK    5  A    between atoms: _11  and  _12
REMARK    6  A    between atoms: _11  and  _14
REMARK    7  A    between atoms: _17  and  _19
REMARK    8  A    between atoms: _19  and  _20
REMARK    9  A    between atoms: _19  and  _22
REMARK   10  A    between atoms: _22  and  _23
REMARK   11  A    between atoms: _26  and  _28
REMARK   12  A    between atoms: _28  and  _29
REMARK   13  A    between atoms: _31  and  _33
REMARK   14  A    between atoms: _33  and  _34
REMARK   15  A    between atoms: _33  and  _36
REMARK   16  A    between atoms: _36  and  _37
REMARK   17  A    between atoms: _37  and  _38
REMARK   18  A    between atoms: _38  and  _39
REMARK   19  A    between atoms: _48  and  _50
REMARK   20  A    between atoms: _50  and  _51
REMARK   21  A    between atoms: _53  and  _55
REMARK   22  A    between atoms: _55  and  _56
REMARK   23  A    between atoms: _55  and  _58
REMARK   24  A    between atoms: _58  and  _59
REMARK   25  A    between atoms: _64  and  _66
REMARK   26  A    between atoms: _66  and  _67
REMARK   27  A    between atoms: _66  and  _69
REMARK   28  A    between atoms: _69  and  _70
REMARK   29  A    between atoms: _76  and  _78
REMARK   30  A    between atoms: _78  and  _79
REMARK   31  A    between atoms: _81  and  _83
REMARK   32  A    between atoms: _83  and  _84
REMARK   33  A    between atoms: _83  and  _86
REMARK   34  A    between atoms: _88  and  _90
REMARK   35  A    between atoms: _90  and  _91
REMARK   36  A    between atoms: _90  and  _93
REMARK   37  A    between atoms: _96  and  _98
REMARK   38  A    between atoms: _98  and  _99
REMARK   39  A    between atoms: _98  and  _101
REMARK   40  A    between atoms: _101  and  _102
REMARK   41  A    between atoms: _107  and  _108
REMARK   42  A    between atoms: _110  and  _112
REMARK   43  A    between atoms: _112  and  _113
REMARK   44  A    between atoms: _112  and  _115
REMARK   45  A    between atoms: _115  and  _116
REMARK   46  A    between atoms: _121  and  _123
REMARK   47  A    between atoms: _123  and  _124
REMARK   48  A    between atoms: _123  and  _126
REMARK   49  A    between atoms: _126  and  _127
REMARK   50  A    between atoms: _132  and  _134
REMARK   51  A    between atoms: _134  and  _135
REMARK   52  A    between atoms: _134  and  _137
REMARK   53  A    between atoms: _139  and  _141
REMARK   54  A    between atoms: _141  and  _142
REMARK   55  A    between atoms: _145  and  _147
REMARK   56  A    between atoms: _147  and  _148
REMARK   57  A    between atoms: _147  and  _150
REMARK   58  A    between atoms: _153  and  _155
REMARK   59  A    between atoms: _155  and  _156
REMARK   60  A    between atoms: _155  and  _158
REMARK   61  A    between atoms: _158  and  _159
REMARK   62  A    between atoms: _159  and  _160
REMARK   63  A    between atoms: _160  and  _161
REMARK   64  A    between atoms: _161  and  _162
REMARK   65  A    between atoms: _166  and  _168
REMARK   66  A    between atoms: _168  and  _169
REMARK   67  A    between atoms: _168  and  _171
REMARK   68  A    between atoms: _171  and  _172
REMARK   69  A    between atoms: _174  and  _176
REMARK   70  A    between atoms: _176  and  _177
REMARK   71  A    between atoms: _176  and  _179
REMARK   72  A    between atoms: _179  and  _180
REMARK   73  A    between atoms: _183  and  _185
REMARK   74  A    between atoms: _185  and  _186
REMARK   75  A    between atoms: _185  and  _188
REMARK   76  A    between atoms: _188  and  _189
REMARK   77  A    between atoms: _192  and  _194
REMARK   78  A    between atoms: _194  and  _195
REMARK   79  A    between atoms: _194  and  _197
REMARK   80  A    between atoms: _197  and  _198
REMARK   81  A    between atoms: _198  and  _199
REMARK   82  A    between atoms: _202  and  _204
REMARK   83  A    between atoms: _204  and  _205
REMARK   84  A    between atoms: _204  and  _207
REMARK   85  A    between atoms: _210  and  _212
REMARK   86  A    between atoms: _212  and  _213
REMARK   87  A    between atoms: _212  and  _215
REMARK   88  A    between atoms: _215  and  _216
REMARK   89  A    between atoms: _216  and  _217
REMARK   90  A    between atoms: _222  and  _224
REMARK   91  A    between atoms: _224  and  _225
REMARK   92  A    between atoms: _224  and  _227
REMARK   93  A    between atoms: _227  and  _228
REMARK   94  A    between atoms: _234  and  _236
REMARK   95  A    between atoms: _236  and  _237
REMARK   96  A    between atoms: _236  and  _239
REMARK   97  A    between atoms: _239  and  _240
REMARK   98  A    between atoms: _243  and  _245
REMARK   99  A    between atoms: _245  and  _246
REMARK  100  A    between atoms: _245  and  _248
REMARK  101  A    between atoms: _248  and  _249
REMARK  102  A    between atoms: _252  and  _254
REMARK  103  A    between atoms: _254  and  _255
REMARK  104  A    between atoms: _254  and  _257
REMARK  105  A    between atoms: _257  and  _258
REMARK  106  A    between atoms: _258  and  _259
REMARK  107  A    between atoms: _262  and  _264
REMARK  108  A    between atoms: _264  and  _265
REMARK  109  A    between atoms: _267  and  _269
REMARK  110  A    between atoms: _269  and  _270
REMARK  111  A    between atoms: _269  and  _272
REMARK  112  A    between atoms: _272  and  _273
REMARK  113  A    between atoms: _276  and  _278
REMARK  114  A    between atoms: _278  and  _279
REMARK  115  A    between atoms: _278  and  _281
REMARK  116  A    between atoms: _281  and  _282
REMARK  117  A    between atoms: _285  and  _287
REMARK  118  A    between atoms: _287  and  _288
REMARK  119  A    between atoms: _287  and  _290
REMARK  120  A    between atoms: _290  and  _291
REMARK  121  A    between atoms: _291  and  _292
REMARK  122  A    between atoms: _294  and  _296
REMARK  123  A    between atoms: _296  and  _297
REMARK  124  A    between atoms: _296  and  _299
REMARK  125  A    between atoms: _299  and  _300
REMARK  126  A    between atoms: _300  and  _301
REMARK  127  A    between atoms: _301  and  _302
REMARK  128  A    between atoms: _302  and  _303
REMARK  129  A    between atoms: _307  and  _309
REMARK  130  A    between atoms: _309  and  _310
REMARK  131  A    between atoms: _309  and  _312
REMARK  132  A    between atoms: _312  and  _313
REMARK  133  A    between atoms: _319  and  _321
REMARK  134  A    between atoms: _321  and  _322
REMARK  135  A    between atoms: _321  and  _324
REMARK  136  A    between atoms: _327  and  _329
REMARK  137  A    between atoms: _329  and  _330
REMARK  138  A    between atoms: _329  and  _332
REMARK  139  A    between atoms: _332  and  _333
REMARK  140  A    between atoms: _336  and  _338
REMARK  141  A    between atoms: _338  and  _339
REMARK  142  A    between atoms: _338  and  _341
REMARK  143  A    between atoms: _341  and  _342
REMARK  144  A    between atoms: _344  and  _346
REMARK  145  A    between atoms: _346  and  _347
REMARK  146  A    between atoms: _346  and  _349
REMARK  147  A    between atoms: _349  and  _350
REMARK  148  A    between atoms: _353  and  _355
REMARK  149  A    between atoms: _355  and  _356
REMARK  150  A    between atoms: _358  and  _360
REMARK  151  A    between atoms: _360  and  _361
REMARK  152  A    between atoms: _360  and  _363
REMARK  153  A    between atoms: _363  and  _364
REMARK  154  A    between atoms: _367  and  _369
REMARK  155  A    between atoms: _369  and  _370
REMARK  156  A    between atoms: _369  and  _372
REMARK  157  A    between atoms: _375  and  _376
REMARK  158  A    between atoms: _381  and  _383
REMARK  159  A    between atoms: _383  and  _384
REMARK  160  A    between atoms: _383  and  _386
REMARK  161  A    between atoms: _386  and  _387
REMARK  162  A    between atoms: _390  and  _392
REMARK  163  A    between atoms: _392  and  _393
REMARK  164  A    between atoms: _392  and  _395
REMARK  165  A    between atoms: _398  and  _400
REMARK  166  A    between atoms: _400  and  _401
REMARK  167  A    between atoms: _400  and  _403
REMARK  168  A    between atoms: _406  and  _408
REMARK  169  A    between atoms: _408  and  _409
REMARK  170  A    between atoms: _408  and  _411
REMARK  171  A    between atoms: _411  and  _412
REMARK  172  A    between atoms: _416  and  _417
REMARK  173  A    between atoms: _422  and  _424
REMARK  174  A    between atoms: _424  and  _425
REMARK  175  A    between atoms: _424  and  _427
REMARK  176  A    between atoms: _427  and  _428
REMARK  177  A    between atoms: _433  and  _434
REMARK  178  A    between atoms: _436  and  _438
REMARK  179  A    between atoms: _438  and  _439
REMARK  180  A    between atoms: _438  and  _441
REMARK  181  A    between atoms: _441  and  _442
REMARK  182  A    between atoms: _442  and  _443
REMARK  183  A    between atoms: _445  and  _447
REMARK  184  A    between atoms: _447  and  _448
REMARK  185  A    between atoms: _447  and  _450
REMARK  186  A    between atoms: _450  and  _451
REMARK  187  A    between atoms: _451  and  _452
REMARK  188  A    between atoms: _452  and  _453
REMARK  189  A    between atoms: _453  and  _454
REMARK  190  A    between atoms: _458  and  _460
REMARK  191  A    between atoms: _460  and  _461
REMARK  192  A    between atoms: _460  and  _463
REMARK  193  A    between atoms: _463  and  _464
REMARK  194  A    between atoms: _469  and  _471
REMARK  195  A    between atoms: _471  and  _472
REMARK  196  A    between atoms: _474  and  _476
REMARK  197  A    between atoms: _476  and  _477
REMARK  198  A    between atoms: _476  and  _479
REMARK  199  A    between atoms: _479  and  _480
REMARK  200  A    between atoms: _483  and  _485
REMARK  201  A    between atoms: _485  and  _486
REMARK  202  A    between atoms: _485  and  _488
REMARK  203  A    between atoms: _488  and  _489
REMARK  204  A    between atoms: _494  and  _496
REMARK  205  A    between atoms: _496  and  _497
REMARK  206  A    between atoms: _496  and  _499
REMARK  207  A    between atoms: _499  and  _500
REMARK  208  A    between atoms: _503  and  _505
REMARK  209  A    between atoms: _505  and  _506
REMARK  210  A    between atoms: _505  and  _508
REMARK  211  A    between atoms: _508  and  _509
REMARK  212  A    between atoms: _515  and  _517
REMARK  213  A    between atoms: _517  and  _518
REMARK  214  A    between atoms: _517  and  _520
REMARK  215  A    between atoms: _523  and  _525
REMARK  216  A    between atoms: _525  and  _526
REMARK  217  A    between atoms: _525  and  _528
REMARK  218  A    between atoms: _528  and  _529
REMARK  219  A    between atoms: _534  and  _536
REMARK  220  A    between atoms: _536  and  _537
REMARK  221  A    between atoms: _536  and  _539
REMARK  222  A    between atoms: _539  and  _540
REMARK  223  A    between atoms: _540  and  _541
REMARK  224  A    between atoms: _541  and  _542
REMARK  225  A    between atoms: _551  and  _553
REMARK  226  A    between atoms: _553  and  _554
REMARK  227  A    between atoms: _553  and  _556
REMARK  228  A    between atoms: _556  and  _557
REMARK  229  A    between atoms: _562  and  _564
REMARK  230  A    between atoms: _564  and  _565
REMARK  231  A    between atoms: _564  and  _567
REMARK  232  A    between atoms: _569  and  _571
REMARK  233  A    between atoms: _571  and  _572
REMARK  234  A    between atoms: _571  and  _574
REMARK  235  A    between atoms: _574  and  _575
REMARK  236  A    between atoms: _575  and  _576
REMARK  237  A    between atoms: _578  and  _580
REMARK  238  A    between atoms: _580  and  _581
REMARK  239  A    between atoms: _580  and  _583
REMARK  240  A    between atoms: _583  and  _584
REMARK  241  A    between atoms: _587  and  _589
REMARK  242  A    between atoms: _589  and  _590
REMARK  243  A    between atoms: _589  and  _592
REMARK  244  A    between atoms: _592  and  _593
REMARK  245  A    between atoms: _593  and  _594
REMARK  246  A    between atoms: _594  and  _595
REMARK  247  A    between atoms: _595  and  _596
REMARK  248  A    between atoms: _600  and  _602
REMARK  249  A    between atoms: _602  and  _603
REMARK  250  A    between atoms: _602  and  _605
REMARK  251  A    between atoms: _608  and  _610
REMARK  252  A    between atoms: _610  and  _611
REMARK  253  A    between atoms: _614  and  _616
REMARK  254  A    between atoms: _616  and  _617
REMARK  255  A    between atoms: _616  and  _619
REMARK  256  A    between atoms: _619  and  _620
REMARK  257  A    between atoms: _623  and  _625
REMARK  258  A    between atoms: _625  and  _626
REMARK  259  A    between atoms: _625  and  _628
REMARK  260  A    between atoms: _628  and  _629
REMARK  261  A    between atoms: _635  and  _637
REMARK  262  A    between atoms: _637  and  _638
REMARK                            x       y       z     vdW  Elec       q    Type
REMARK                         _______ _______ _______ _____ _____    ______ ____
ROOT
ATOM      1  CA  VAL A   2      21.191  10.516   8.596  0.00  0.00    +0.148 C 
ENDROOT
BRANCH   1   4
ATOM      2  C   PHE A   1      23.569  10.915   9.075  0.00  0.00    +0.239 C 
ATOM      3  O   PHE A   1      23.345  11.380  10.196  0.00  0.00    -0.274 OA
ATOM      4  N   VAL A   2      22.616  10.474   8.256  0.00  0.00    -0.297 N 
ATOM      5  H   VAL A   2      22.895  10.082   7.334  0.00  0.00    +0.150 HD
BRANCH   2   6
ATOM      6  CA  PHE A   1      24.998  10.814   8.547  0.00  0.00    +0.149 C 
BRANCH   6   7
ATOM      7  N   PHE A   1      25.651  12.111   8.534  0.00  0.00    -0.238 NA
ATOM      8  H   PHE A   1      25.969  12.528   9.432  0.00  0.00    +0.142 HD
ENDBRANCH   6   7
BRANCH   6   9
ATOM      9  CB  PHE A   1      25.811   9.802   9.364  0.00  0.00    +0.053 C 
BRANCH   9  10
ATOM     10  CG  PHE A   1      25.412   8.375   9.118  0.00  0.00    -0.020 A 
ATOM     11  CD2 PHE A   1      24.396   7.783   9.862  0.00  0.00    -0.004 A 
ATOM     12  CE2 PHE A   1      24.014   6.467   9.626  0.00  0.00    -0.000 A 
ATOM     13  CZ  PHE A   1      24.658   5.723   8.638  0.00  0.00    -0.000 A 
ATOM     14  CE1 PHE A   1      25.674   6.303   7.887  0.00  0.00    -0.000 A 
ATOM     15  CD1 PHE A   1      26.044   7.625   8.128  0.00  0.00    -0.004 A 
ENDBRANCH   9  10
ENDBRANCH   6   9
ENDBRANCH   2   6
ENDBRANCH   1   4
BRANCH   1  16
ATOM     16  C   VAL A   2      20.772   9.191   9.242  0.00  0.00    +0.241 C 
ATOM     17  N   HIS A   3      20.185   9.278  10.436  0.00  0.00    -0.298 N 
ATOM     18  H   HIS A   3      19.999  10.220  10.834  0.00  0.00    +0.150 HD
ATOM     19  O   VAL A   2      20.975   8.119   8.666  0.00  0.00    -0.273 OA
BRANCH  17  20
ATOM     20  CA  HIS A   3      19.792   8.095  11.209  0.00  0.00    +0.143 C 
BRANCH  20  21
ATOM     21  C   HIS A   3      18.664   7.311  10.542  0.00  0.00    +0.227 C 
ATOM     22  O   HIS A   3      18.793   6.105  10.328  0.00  0.00    -0.286 OA
ENDBRANCH  20  21
BRANCH  20  23
ATOM     23  CB  HIS A   3      19.392   8.488  12.638  0.00  0.00    +0.075 C 
BRANCH  23  24
ATOM     24  CG  HIS A   3      19.281   7.330  13.580  0.00  0.00    +0.082 A 
ATOM     25  CD2 HIS A   3      19.887   7.086  14.764  0.00  0.00    +0.115 A 
ATOM     26  NE2 HIS A   3      19.421   5.876  15.219  0.00  0.00    -0.221 NA
ATOM     27  CE1 HIS A   3      18.558   5.393  14.345  0.00  0.00    +0.199 A 
ATOM     28  ND1 HIS A   3      18.453   6.252  13.348  0.00  0.00    -0.227 NA
ENDBRANCH  23  24
ENDBRANCH  20  23
ENDBRANCH  17  20
ENDBRANCH   1  16
BRANCH   1  29
ATOM     29  CB  VAL A   2      20.307  10.828   7.344  0.00  0.00    +0.027 C 
ATOM     30  CG2 VAL A   2      18.815  10.810   7.693  0.00  0.00    +0.002 C 
ATOM     31  CG1 VAL A   2      20.685  12.174   6.734  0.00  0.00    +0.002 C 
ENDBRANCH   1  29
TORSDOF 11
REMARK  Name = ../refined-set-2016/3u6i/3u6i_pocket.pdb
REMARK  262 active torsions:
REMARK  status: ('A' for Active; 'I' for Inactive)
REMARK    1  A    between atoms: _1  and  _3
REMARK    2  A    between atoms: _3  and  _4
REMARK    3  A    between atoms: _3  and  _6
REMARK    4  A    between atoms: _9  and  _11
REMARK    5  A    between atoms: _11  and  _12
REMARK    6  A    between atoms: _11  and  _14
REMARK    7  A    between atoms: _17  and  _19
REMARK    8  A    between atoms: _19  and  _20
REMARK    9  A    between atoms: _19  and  _22
REMARK   10  A    between atoms: _22  and  _23
REMARK   11  A    between atoms: _26  and  _28
REMARK   12  A    between atoms: _28  and  _29
REMARK   13  A    between atoms: _31  and  _33
REMARK   14  A    between atoms: _33  and  _34
REMARK   15  A    between atoms: _33  and  _36
REMARK   16  A    between atoms: _36  and  _37
REMARK   17  A    between atoms: _37  and  _38
REMARK   18  A    between atoms: _38  and  _39
REMARK   19  A    between atoms: _48  and  _50
REMARK   20  A    between atoms: _50  and  _51
REMARK   21  A    between atoms: _53  and  _55
REMARK   22  A    between atoms: _55  and  _56
REMARK   23  A    between atoms: _55  and  _58
REMARK   24  A    between atoms: _58  and  _59
REMARK   25  A    between atoms: _64  and  _66
REMARK   26  A    between atoms: _66  and  _67
REMARK   27  A    between atoms: _66  and  _69
REMARK   28  A    between atoms: _69  and  _70
REMARK   29  A    between atoms: _76  and  _78
REMARK   30  A    between atoms: _78  and  _79
REMARK   31  A    between atoms: _81  and  _83
REMARK   32  A    between atoms: _83  and  _84
REMARK   33  A    between atoms: _83  and  _86
REMARK   34  A    between atoms: _88  and  _90
REMARK   35  A    between atoms: _90  and  _91
REMARK   36  A    between atoms: _90  and  _93
REMARK   37  A    between atoms: _96  and  _98
REMARK   38  A    between atoms: _98  and  _99
REMARK   39  A    between atoms: _98  and  _101
REMARK   40  A    between atoms: _101  and  _102
REMARK   41  A    between atoms: _107  and  _108
REMARK   42  A    between atoms: _110  and  _112
REMARK   43  A    between atoms: _112  and  _113
REMARK   44  A    between atoms: _112  and  _115
REMARK   45  A    between atoms: _115  and  _116
REMARK   46  A    between atoms: _121  and  _123
REMARK   47  A    between atoms: _123  and  _124
REMARK   48  A    between atoms: _123  and  _126
REMARK   49  A    between atoms: _126  and  _127
REMARK   50  A    between atoms: _132  and  _134
REMARK   51  A    between atoms: _134  and  _135
REMARK   52  A    between atoms: _134  and  _137
REMARK   53  A    between atoms: _139  and  _141
REMARK   54  A    between atoms: _141  and  _142
REMARK   55  A    between atoms: _145  and  _147
REMARK   56  A    between atoms: _147  and  _148
REMARK   57  A    between atoms: _147  and  _150
REMARK   58  A    between atoms: _153  and  _155
REMARK   59  A    between atoms: _155  and  _156
REMARK   60  A    between atoms: _155  and  _158
REMARK   61  A    between atoms: _158  and  _159
REMARK   62  A    between atoms: _159  and  _160
REMARK   63  A    between atoms: _160  and  _161
REMARK   64  A    between atoms: _161  and  _162
REMARK   65  A    between atoms: _166  and  _168
REMARK   66  A    between atoms: _168  and  _169
REMARK   67  A    between atoms: _168  and  _171
REMARK   68  A    between atoms: _171  and  _172
REMARK   69  A    between atoms: _174  and  _176
REMARK   70  A    between atoms: _176  and  _177
REMARK   71  A    between atoms: _176  and  _179
REMARK   72  A    between atoms: _179  and  _180
REMARK   73  A    between atoms: _183  and  _185
REMARK   74  A    between atoms: _185  and  _186
REMARK   75  A    between atoms: _185  and  _188
REMARK   76  A    between atoms: _188  and  _189
REMARK   77  A    between atoms: _192  and  _194
REMARK   78  A    between atoms: _194  and  _195
REMARK   79  A    between atoms: _194  and  _197
REMARK   80  A    between atoms: _197  and  _198
REMARK   81  A    between atoms: _198  and  _199
REMARK   82  A    between atoms: _202  and  _204
REMARK   83  A    between atoms: _204  and  _205
REMARK   84  A    between atoms: _204  and  _207
REMARK   85  A    between atoms: _210  and  _212
REMARK   86  A    between atoms: _212  and  _213
REMARK   87  A    between atoms: _212  and  _215
REMARK   88  A    between atoms: _215  and  _216
REMARK   89  A    between atoms: _216  and  _217
REMARK   90  A    between atoms: _222  and  _224
REMARK   91  A    between atoms: _224  and  _225
REMARK   92  A    between atoms: _224  and  _227
REMARK   93  A    between atoms: _227  and  _228
REMARK   94  A    between atoms: _234  and  _236
REMARK   95  A    between atoms: _236  and  _237
REMARK   96  A    between atoms: _236  and  _239
REMARK   97  A    between atoms: _239  and  _240
REMARK   98  A    between atoms: _243  and  _245
REMARK   99  A    between atoms: _245  and  _246
REMARK  100  A    between atoms: _245  and  _248
REMARK  101  A    between atoms: _248  and  _249
REMARK  102  A    between atoms: _252  and  _254
REMARK  103  A    between atoms: _254  and  _255
REMARK  104  A    between atoms: _254  and  _257
REMARK  105  A    between atoms: _257  and  _258
REMARK  106  A    between atoms: _258  and  _259
REMARK  107  A    between atoms: _262  and  _264
REMARK  108  A    between atoms: _264  and  _265
REMARK  109  A    between atoms: _267  and  _269
REMARK  110  A    between atoms: _269  and  _270
REMARK  111  A    between atoms: _269  and  _272
REMARK  112  A    between atoms: _272  and  _273
REMARK  113  A    between atoms: _276  and  _278
REMARK  114  A    between atoms: _278  and  _279
REMARK  115  A    between atoms: _278  and  _281
REMARK  116  A    between atoms: _281  and  _282
REMARK  117  A    between atoms: _285  and  _287
REMARK  118  A    between atoms: _287  and  _288
REMARK  119  A    between atoms: _287  and  _290
REMARK  120  A    between atoms: _290  and  _291
REMARK  121  A    between atoms: _291  and  _292
REMARK  122  A    between atoms: _294  and  _296
REMARK  123  A    between atoms: _296  and  _297
REMARK  124  A    between atoms: _296  and  _299
REMARK  125  A    between atoms: _299  and  _300
REMARK  126  A    between atoms: _300  and  _301
REMARK  127  A    between atoms: _301  and  _302
REMARK  128  A    between atoms: _302  and  _303
REMARK  129  A    between atoms: _307  and  _309
REMARK  130  A    between atoms: _309  and  _310
REMARK  131  A    between atoms: _309  and  _312
REMARK  132  A    between atoms: _312  and  _313
REMARK  133  A    between atoms: _319  and  _321
REMARK  134  A    between atoms: _321  and  _322
REMARK  135  A    between atoms: _321  and  _324
REMARK  136  A    between atoms: _327  and  _329
REMARK  137  A    between atoms: _329  and  _330
REMARK  138  A    between atoms: _329  and  _332
REMARK  139  A    between atoms: _332  and  _333
REMARK  140  A    between atoms: _336  and  _338
REMARK  141  A    between atoms: _338  and  _339
REMARK  142  A    between atoms: _338  and  _341
REMARK  143  A    between atoms: _341  and  _342
REMARK  144  A    between atoms: _344  and  _346
REMARK  145  A    between atoms: _346  and  _347
REMARK  146  A    between atoms: _346  and  _349
REMARK  147  A    between atoms: _349  and  _350
REMARK  148  A    between atoms: _353  and  _355
REMARK  149  A    between atoms: _355  and  _356
REMARK  150  A    between atoms: _358  and  _360
REMARK  151  A    between atoms: _360  and  _361
REMARK  152  A    between atoms: _360  and  _363
REMARK  153  A    between atoms: _363  and  _364
REMARK  154  A    between atoms: _367  and  _369
REMARK  155  A    between atoms: _369  and  _370
REMARK  156  A    between atoms: _369  and  _372
REMARK  157  A    between atoms: _375  and  _376
REMARK  158  A    between atoms: _381  and  _383
REMARK  159  A    between atoms: _383  and  _384
REMARK  160  A    between atoms: _383  and  _386
REMARK  161  A    between atoms: _386  and  _387
REMARK  162  A    between atoms: _390  and  _392
REMARK  163  A    between atoms: _392  and  _393
REMARK  164  A    between atoms: _392  and  _395
REMARK  165  A    between atoms: _398  and  _400
REMARK  166  A    between atoms: _400  and  _401
REMARK  167  A    between atoms: _400  and  _403
REMARK  168  A    between atoms: _406  and  _408
REMARK  169  A    between atoms: _408  and  _409
REMARK  170  A    between atoms: _408  and  _411
REMARK  171  A    between atoms: _411  and  _412
REMARK  172  A    between atoms: _416  and  _417
REMARK  173  A    between atoms: _422  and  _424
REMARK  174  A    between atoms: _424  and  _425
REMARK  175  A    between atoms: _424  and  _427
REMARK  176  A    between atoms: _427  and  _428
REMARK  177  A    between atoms: _433  and  _434
REMARK  178  A    between atoms: _436  and  _438
REMARK  179  A    between atoms: _438  and  _439
REMARK  180  A    between atoms: _438  and  _441
REMARK  181  A    between atoms: _441  and  _442
REMARK  182  A    between atoms: _442  and  _443
REMARK  183  A    between atoms: _445  and  _447
REMARK  184  A    between atoms: _447  and  _448
REMARK  185  A    between atoms: _447  and  _450
REMARK  186  A    between atoms: _450  and  _451
REMARK  187  A    between atoms: _451  and  _452
REMARK  188  A    between atoms: _452  and  _453
REMARK  189  A    between atoms: _453  and  _454
REMARK  190  A    between atoms: _458  and  _460
REMARK  191  A    between atoms: _460  and  _461
REMARK  192  A    between atoms: _460  and  _463
REMARK  193  A    between atoms: _463  and  _464
REMARK  194  A    between atoms: _469  and  _471
REMARK  195  A    between atoms: _471  and  _472
REMARK  196  A    between atoms: _474  and  _476
REMARK  197  A    between atoms: _476  and  _477
REMARK  198  A    between atoms: _476  and  _479
REMARK  199  A    between atoms: _479  and  _480
REMARK  200  A    between atoms: _483  and  _485
REMARK  201  A    between atoms: _485  and  _486
REMARK  202  A    between atoms: _485  and  _488
REMARK  203  A    between atoms: _488  and  _489
REMARK  204  A    between atoms: _494  and  _496
REMARK  205  A    between atoms: _496  and  _497
REMARK  206  A    between atoms: _496  and  _499
REMARK  207  A    between atoms: _499  and  _500
REMARK  208  A    between atoms: _503  and  _505
REMARK  209  A    between atoms: _505  and  _506
REMARK  210  A    between atoms: _505  and  _508
REMARK  211  A    between atoms: _508  and  _509
REMARK  212  A    between atoms: _515  and  _517
REMARK  213  A    between atoms: _517  and  _518
REMARK  214  A    between atoms: _517  and  _520
REMARK  215  A    between atoms: _523  and  _525
REMARK  216  A    between atoms: _525  and  _526
REMARK  217  A    between atoms: _525  and  _528
REMARK  218  A    between atoms: _528  and  _529
REMARK  219  A    between atoms: _534  and  _536
REMARK  220  A    between atoms: _536  and  _537
REMARK  221  A    between atoms: _536  and  _539
REMARK  222  A    between atoms: _539  and  _540
REMARK  223  A    between atoms: _540  and  _541
REMARK  224  A    between atoms: _541  and  _542
REMARK  225  A    between atoms: _551  and  _553
REMARK  226  A    between atoms: _553  and  _554
REMARK  227  A    between atoms: _553  and  _556
REMARK  228  A    between atoms: _556  and  _557
REMARK  229  A    between atoms: _562  and  _564
REMARK  230  A    between atoms: _564  and  _565
REMARK  231  A    between atoms: _564  and  _567
REMARK  232  A    between atoms: _569  and  _571
REMARK  233  A    between atoms: _571  and  _572
REMARK  234  A    between atoms: _571  and  _574
REMARK  235  A    between atoms: _574  and  _575
REMARK  236  A    between atoms: _575  and  _576
REMARK  237  A    between atoms: _578  and  _580
REMARK  238  A    between atoms: _580  and  _581
REMARK  239  A    between atoms: _580  and  _583
REMARK  240  A    between atoms: _583  and  _584
REMARK  241  A    between atoms: _587  and  _589
REMARK  242  A    between atoms: _589  and  _590
REMARK  243  A    between atoms: _589  and  _592
REMARK  244  A    between atoms: _592  and  _593
REMARK  245  A    between atoms: _593  and  _594
REMARK  246  A    between atoms: _594  and  _595
REMARK  247  A    between atoms: _595  and  _596
REMARK  248  A    between atoms: _600  and  _602
REMARK  249  A    between atoms: _602  and  _603
REMARK  250  A    between atoms: _602  and  _605
REMARK  251  A    between atoms: _608  and  _610
REMARK  252  A    between atoms: _610  and  _611
REMARK  253  A    between atoms: _614  and  _616
REMARK  254  A    between atoms: _616  and  _617
REMARK  255  A    between atoms: _616  and  _619
REMARK  256  A    between atoms: _619  and  _620
REMARK  257  A    between atoms: _623  and  _625
REMARK  258  A    between atoms: _625  and  _626
REMARK  259  A    between atoms: _625  and  _628
REMARK  260  A    between atoms: _628  and  _629
REMARK  261  A    between atoms: _635  and  _637
REMARK  262  A    between atoms: _637  and  _638
REMARK                            x       y       z     vdW  Elec       q    Type
REMARK                         _______ _______ _______ _____ _____    ______ ____
ROOT
ATOM      1  C   ASN A   2      18.000   2.704  19.877  0.00  0.00    +0.241 C 
ATOM      2  N   CYS A   3      17.754   3.251  21.059  0.00  0.00    -0.296 N 
ATOM      3  H   CYS A   3      16.772   3.305  21.398  0.00  0.00    +0.150 HD
ATOM      4  O   ASN A   2      19.116   2.686  19.376  0.00  0.00    -0.273 OA
ENDROOT
BRANCH   2   5
ATOM      5  CA  CYS A   3      18.822   3.777  21.893  0.00  0.00    +0.160 C 
BRANCH   5   6
ATOM      6  C   CYS A   3      19.169   2.746  22.957  0.00  0.00    +0.242 C 
ATOM      7  O   CYS A   3      18.279   2.172  23.593  0.00  0.00    -0.273 OA
ATOM      8  N   MET A   4      20.465   2.493  23.120  0.00  0.00    -0.297 N 
ATOM      9  H   MET A   4      21.159   3.021  22.554  0.00  0.00    +0.150 HD
BRANCH   8  10
ATOM     10  CA  MET A   4      20.937   1.495  24.072  0.00  0.00    +0.149 C 
BRANCH  10  11
ATOM     11  C   MET A   4      21.402   2.167  25.362  0.00  0.00    +0.241 C 
ATOM     12  N   LEU A   5      21.501   1.379  26.431  0.00  0.00    -0.298 N 
ATOM     13  H   LEU A   5      21.248   0.375  26.338  0.00  0.00    +0.150 HD
ATOM     14  O   MET A   4      21.654   3.379  25.384  0.00  0.00    -0.273 OA
BRANCH  12  15
ATOM     15  CA  LEU A   5      21.952   1.872  27.729  0.00  0.00    +0.137 C 
BRANCH  15  16
ATOM     16  C   LEU A   5      22.956   0.887  28.326  0.00  0.00    +0.227 C 
ATOM     17  O   LEU A   5      22.635  -0.284  28.518  0.00  0.00    -0.286 OA
ENDBRANCH  15  16
BRANCH  15  18
ATOM     18  CB  LEU A   5      20.752   2.069  28.670  0.00  0.00    +0.028 C 
BRANCH  18  19
ATOM     19  CG  LEU A   5      20.897   2.964  29.909  0.00  0.00    +0.002 C 
ATOM     20  CD2 LEU A   5      19.658   2.847  30.790  0.00  0.00    +0.000 C 
ATOM     21  CD1 LEU A   5      21.130   4.414  29.523  0.00  0.00    +0.000 C 
ENDBRANCH  18  19
ENDBRANCH  15  18
ENDBRANCH  12  15
ENDBRANCH  10  11
BRANCH  10  22
ATOM     22  CB  MET A   4      22.068   0.654  23.463  0.00  0.00    +0.041 C 
BRANCH  22  23
ATOM     23  CG  MET A   4      21.764   0.024  22.101  0.00  0.00    +0.060 C 
BRANCH  23  24
ATOM     24  SD  MET A   4      20.178  -0.832  21.986  0.00  0.00    -0.139 S 
ATOM     25  CE  MET A   4      20.429  -2.256  23.030  0.00  0.00    +0.069 C 
ENDBRANCH  23  24
ENDBRANCH  22  23
ENDBRANCH  10  22
ENDBRANCH   8  10
ENDBRANCH   5   6
BRANCH   5  26
ATOM     26  CB  CYS A   3      18.407   5.106  22.518  0.00  0.00    +0.098 C 
ATOM     27  SG  CYS A   3      18.142   6.408  21.284  0.00  0.00    -0.080 S 
ENDBRANCH   5  26
ENDBRANCH   2   5
BRANCH   1  28
ATOM     28  CA  ASN A   2      16.812   2.098  19.140  0.00  0.00    +0.158 C 
BRANCH  28  31
ATOM     29  C   ARG A   1      15.028   1.191  20.551  0.00  0.00    +0.238 C 
ATOM     30  O   ARG A   1      15.581   0.099  20.669  0.00  0.00    -0.274 OA
ATOM     31  N   ASN A   2      15.549   2.206  19.863  0.00  0.00    -0.297 N 
ATOM     32  H   ASN A   2      15.036   3.110  19.840  0.00  0.00    +0.150 HD
BRANCH  29  33
ATOM     33  CA  ARG A   1      13.663   1.431  21.197  0.00  0.00    +0.145 C 
BRANCH  33  34
ATOM     34  N   ARG A   1      13.362   2.858  21.393  0.00  0.00    -0.238 NA
ATOM     35  H   ARG A   1      12.509   3.252  20.947  0.00  0.00    +0.142 HD
ENDBRANCH  33  34
BRANCH  33  36
ATOM     36  CB  ARG A   1      12.579   0.745  20.353  0.00  0.00    +0.030 C 
BRANCH  36  37
ATOM     37  CG  ARG A   1      12.620   1.121  18.866  0.00  0.00    +0.045 C 
BRANCH  37  38
ATOM     38  CD  ARG A   1      11.508   0.477  18.060  0.00  0.00    +0.174 C 
BRANCH  38  39
ATOM     39  NE  ARG A   1      11.378   1.140  16.763  0.00  0.00    -0.265 N 
ATOM     40  CZ  ARG A   1      10.549   2.153  16.509  0.00  0.00    +0.342 C 
ATOM     41  NH2 ARG A   1       9.740   2.630  17.455  0.00  0.00    -0.292 N 
ATOM     42 HH21 ARG A   1       9.750   2.212  18.407  0.00  0.00    +0.255 HD
ATOM     43 HH22 ARG A   1       9.099   3.421  17.241  0.00  0.00    +0.255 HD
ATOM     44  NH1 ARG A   1      10.526   2.690  15.299  0.00  0.00    -0.292 N 
ATOM     45 HH11 ARG A   1       9.882   3.480  15.093  0.00  0.00    +0.255 HD
ATOM     46 HH12 ARG A   1      11.152   2.321  14.555  0.00  0.00    +0.255 HD
ATOM     47  HE  ARG A   1      11.975   0.797  15.983  0.00  0.00    +0.259 HD
ENDBRANCH  38  39
ENDBRANCH  37  38
ENDBRANCH  36  37
ENDBRANCH  33  36
ENDBRANCH  29  33
ENDBRANCH  28  31
BRANCH  28  48
ATOM     48  CB  ASN A   2      16.687   2.707  17.734  0.00  0.00    +0.114 C 
BRANCH  48  49
ATOM     49  CG  ASN A   2      15.961   1.792  16.764  0.00  0.00    +0.222 C 
ATOM     50  OD1 ASN A   2      16.065   0.571  16.851  0.00  0.00    -0.275 OA
ATOM     51  ND2 ASN A   2      15.219   2.379  15.835  0.00  0.00    -0.329 N 
ATOM     52 HD21 ASN A   2      15.158   3.417  15.797  0.00  0.00    +0.145 HD
ATOM     53 HD22 ASN A   2      14.698   1.802  15.145  0.00  0.00    +0.145 HD
ENDBRANCH  48  49
ENDBRANCH  28  48
ENDBRANCH   1  28
TORSDOF 22
REMARK  Name = ../refined-set-2016/3u6i/3u6i_pocket.pdb
REMARK  262 active torsions:
REMARK  status: ('A' for Active; 'I' for Inactive)
REMARK    1  A    between atoms: _1  and  _3
REMARK    2  A    between atoms: _3  and  _4
REMARK    3  A    between atoms: _3  and  _6
REMARK    4  A    between atoms: _9  and  _11
REMARK    5  A    between atoms: _11  and  _12
REMARK    6  A    between atoms: _11  and  _14
REMARK    7  A    between atoms: _17  and  _19
REMARK    8  A    between atoms: _19  and  _20
REMARK    9  A    between atoms: _19  and  _22
REMARK   10  A    between atoms: _22  and  _23
REMARK   11  A    between atoms: _26  and  _28
REMARK   12  A    between atoms: _28  and  _29
REMARK   13  A    between atoms: _31  and  _33
REMARK   14  A    between atoms: _33  and  _34
REMARK   15  A    between atoms: _33  and  _36
REMARK   16  A    between atoms: _36  and  _37
REMARK   17  A    between atoms: _37  and  _38
REMARK   18  A    between atoms: _38  and  _39
REMARK   19  A    between atoms: _48  and  _50
REMARK   20  A    between atoms: _50  and  _51
REMARK   21  A    between atoms: _53  and  _55
REMARK   22  A    between atoms: _55  and  _56
REMARK   23  A    between atoms: _55  and  _58
REMARK   24  A    between atoms: _58  and  _59
REMARK   25  A    between atoms: _64  and  _66
REMARK   26  A    between atoms: _66  and  _67
REMARK   27  A    between atoms: _66  and  _69
REMARK   28  A    between atoms: _69  and  _70
REMARK   29  A    between atoms: _76  and  _78
REMARK   30  A    between atoms: _78  and  _79
REMARK   31  A    between atoms: _81  and  _83
REMARK   32  A    between atoms: _83  and  _84
REMARK   33  A    between atoms: _83  and  _86
REMARK   34  A    between atoms: _88  and  _90
REMARK   35  A    between atoms: _90  and  _91
REMARK   36  A    between atoms: _90  and  _93
REMARK   37  A    between atoms: _96  and  _98
REMARK   38  A    between atoms: _98  and  _99
REMARK   39  A    between atoms: _98  and  _101
REMARK   40  A    between atoms: _101  and  _102
REMARK   41  A    between atoms: _107  and  _108
REMARK   42  A    between atoms: _110  and  _112
REMARK   43  A    between atoms: _112  and  _113
REMARK   44  A    between atoms: _112  and  _115
REMARK   45  A    between atoms: _115  and  _116
REMARK   46  A    between atoms: _121  and  _123
REMARK   47  A    between atoms: _123  and  _124
REMARK   48  A    between atoms: _123  and  _126
REMARK   49  A    between atoms: _126  and  _127
REMARK   50  A    between atoms: _132  and  _134
REMARK   51  A    between atoms: _134  and  _135
REMARK   52  A    between atoms: _134  and  _137
REMARK   53  A    between atoms: _139  and  _141
REMARK   54  A    between atoms: _141  and  _142
REMARK   55  A    between atoms: _145  and  _147
REMARK   56  A    between atoms: _147  and  _148
REMARK   57  A    between atoms: _147  and  _150
REMARK   58  A    between atoms: _153  and  _155
REMARK   59  A    between atoms: _155  and  _156
REMARK   60  A    between atoms: _155  and  _158
REMARK   61  A    between atoms: _158  and  _159
REMARK   62  A    between atoms: _159  and  _160
REMARK   63  A    between atoms: _160  and  _161
REMARK   64  A    between atoms: _161  and  _162
REMARK   65  A    between atoms: _166  and  _168
REMARK   66  A    between atoms: _168  and  _169
REMARK   67  A    between atoms: _168  and  _171
REMARK   68  A    between atoms: _171  and  _172
REMARK   69  A    between atoms: _174  and  _176
REMARK   70  A    between atoms: _176  and  _177
REMARK   71  A    between atoms: _176  and  _179
REMARK   72  A    between atoms: _179  and  _180
REMARK   73  A    between atoms: _183  and  _185
REMARK   74  A    between atoms: _185  and  _186
REMARK   75  A    between atoms: _185  and  _188
REMARK   76  A    between atoms: _188  and  _189
REMARK   77  A    between atoms: _192  and  _194
REMARK   78  A    between atoms: _194  and  _195
REMARK   79  A    between atoms: _194  and  _197
REMARK   80  A    between atoms: _197  and  _198
REMARK   81  A    between atoms: _198  and  _199
REMARK   82  A    between atoms: _202  and  _204
REMARK   83  A    between atoms: _204  and  _205
REMARK   84  A    between atoms: _204  and  _207
REMARK   85  A    between atoms: _210  and  _212
REMARK   86  A    between atoms: _212  and  _213
REMARK   87  A    between atoms: _212  and  _215
REMARK   88  A    between atoms: _215  and  _216
REMARK   89  A    between atoms: _216  and  _217
REMARK   90  A    between atoms: _222  and  _224
REMARK   91  A    between atoms: _224  and  _225
REMARK   92  A    between atoms: _224  and  _227
REMARK   93  A    between atoms: _227  and  _228
REMARK   94  A    between atoms: _234  and  _236
REMARK   95  A    between atoms: _236  and  _237
REMARK   96  A    between atoms: _236  and  _239
REMARK   97  A    between atoms: _239  and  _240
REMARK   98  A    between atoms: _243  and  _245
REMARK   99  A    between atoms: _245  and  _246
REMARK  100  A    between atoms: _245  and  _248
REMARK  101  A    between atoms: _248  and  _249
REMARK  102  A    between atoms: _252  and  _254
REMARK  103  A    between atoms: _254  and  _255
REMARK  104  A    between atoms: _254  and  _257
REMARK  105  A    between atoms: _257  and  _258
REMARK  106  A    between atoms: _258  and  _259
REMARK  107  A    between atoms: _262  and  _264
REMARK  108  A    between atoms: _264  and  _265
REMARK  109  A    between atoms: _267  and  _269
REMARK  110  A    between atoms: _269  and  _270
REMARK  111  A    between atoms: _269  and  _272
REMARK  112  A    between atoms: _272  and  _273
REMARK  113  A    between atoms: _276  and  _278
REMARK  114  A    between atoms: _278  and  _279
REMARK  115  A    between atoms: _278  and  _281
REMARK  116  A    between atoms: _281  and  _282
REMARK  117  A    between atoms: _285  and  _287
REMARK  118  A    between atoms: _287  and  _288
REMARK  119  A    between atoms: _287  and  _290
REMARK  120  A    between atoms: _290  and  _291
REMARK  121  A    between atoms: _291  and  _292
REMARK  122  A    between atoms: _294  and  _296
REMARK  123  A    between atoms: _296  and  _297
REMARK  124  A    between atoms: _296  and  _299
REMARK  125  A    between atoms: _299  and  _300
REMARK  126  A    between atoms: _300  and  _301
REMARK  127  A    between atoms: _301  and  _302
REMARK  128  A    between atoms: _302  and  _303
REMARK  129  A    between atoms: _307  and  _309
REMARK  130  A    between atoms: _309  and  _310
REMARK  131  A    between atoms: _309  and  _312
REMARK  132  A    between atoms: _312  and  _313
REMARK  133  A    between atoms: _319  and  _321
REMARK  134  A    between atoms: _321  and  _322
REMARK  135  A    between atoms: _321  and  _324
REMARK  136  A    between atoms: _327  and  _329
REMARK  137  A    between atoms: _329  and  _330
REMARK  138  A    between atoms: _329  and  _332
REMARK  139  A    between atoms: _332  and  _333
REMARK  140  A    between atoms: _336  and  _338
REMARK  141  A    between atoms: _338  and  _339
REMARK  142  A    between atoms: _338  and  _341
REMARK  143  A    between atoms: _341  and  _342
REMARK  144  A    between atoms: _344  and  _346
REMARK  145  A    between atoms: _346  and  _347
REMARK  146  A    between atoms: _346  and  _349
REMARK  147  A    between atoms: _349  and  _350
REMARK  148  A    between atoms: _353  and  _355
REMARK  149  A    between atoms: _355  and  _356
REMARK  150  A    between atoms: _358  and  _360
REMARK  151  A    between atoms: _360  and  _361
REMARK  152  A    between atoms: _360  and  _363
REMARK  153  A    between atoms: _363  and  _364
REMARK  154  A    between atoms: _367  and  _369
REMARK  155  A    between atoms: _369  and  _370
REMARK  156  A    between atoms: _369  and  _372
REMARK  157  A    between atoms: _375  and  _376
REMARK  158  A    between atoms: _381  and  _383
REMARK  159  A    between atoms: _383  and  _384
REMARK  160  A    between atoms: _383  and  _386
REMARK  161  A    between atoms: _386  and  _387
REMARK  162  A    between atoms: _390  and  _392
REMARK  163  A    between atoms: _392  and  _393
REMARK  164  A    between atoms: _392  and  _395
REMARK  165  A    between atoms: _398  and  _400
REMARK  166  A    between atoms: _400  and  _401
REMARK  167  A    between atoms: _400  and  _403
REMARK  168  A    between atoms: _406  and  _408
REMARK  169  A    between atoms: _408  and  _409
REMARK  170  A    between atoms: _408  and  _411
REMARK  171  A    between atoms: _411  and  _412
REMARK  172  A    between atoms: _416  and  _417
REMARK  173  A    between atoms: _422  and  _424
REMARK  174  A    between atoms: _424  and  _425
REMARK  175  A    between atoms: _424  and  _427
REMARK  176  A    between atoms: _427  and  _428
REMARK  177  A    between atoms: _433  and  _434
REMARK  178  A    between atoms: _436  and  _438
REMARK  179  A    between atoms: _438  and  _439
REMARK  180  A    between atoms: _438  and  _441
REMARK  181  A    between atoms: _441  and  _442
REMARK  182  A    between atoms: _442  and  _443
REMARK  183  A    between atoms: _445  and  _447
REMARK  184  A    between atoms: _447  and  _448
REMARK  185  A    between atoms: _447  and  _450
REMARK  186  A    between atoms: _450  and  _451
REMARK  187  A    between atoms: _451  and  _452
REMARK  188  A    between atoms: _452  and  _453
REMARK  189  A    between atoms: _453  and  _454
REMARK  190  A    between atoms: _458  and  _460
REMARK  191  A    between atoms: _460  and  _461
REMARK  192  A    between atoms: _460  and  _463
REMARK  193  A    between atoms: _463  and  _464
REMARK  194  A    between atoms: _469  and  _471
REMARK  195  A    between atoms: _471  and  _472
REMARK  196  A    between atoms: _474  and  _476
REMARK  197  A    between atoms: _476  and  _477
REMARK  198  A    between atoms: _476  and  _479
REMARK  199  A    between atoms: _479  and  _480
REMARK  200  A    between atoms: _483  and  _485
REMARK  201  A    between atoms: _485  and  _486
REMARK  202  A    between atoms: _485  and  _488
REMARK  203  A    between atoms: _488  and  _489
REMARK  204  A    between atoms: _494  and  _496
REMARK  205  A    between atoms: _496  and  _497
REMARK  206  A    between atoms: _496  and  _499
REMARK  207  A    between atoms: _499  and  _500
REMARK  208  A    between atoms: _503  and  _505
REMARK  209  A    between atoms: _505  and  _506
REMARK  210  A    between atoms: _505  and  _508
REMARK  211  A    between atoms: _508  and  _509
REMARK  212  A    between atoms: _515  and  _517
REMARK  213  A    between atoms: _517  and  _518
REMARK  214  A    between atoms: _517  and  _520
REMARK  215  A    between atoms: _523  and  _525
REMARK  216  A    between atoms: _525  and  _526
REMARK  217  A    between atoms: _525  and  _528
REMARK  218  A    between atoms: _528  and  _529
REMARK  219  A    between atoms: _534  and  _536
REMARK  220  A    between atoms: _536  and  _537
REMARK  221  A    between atoms: _536  and  _539
REMARK  222  A    between atoms: _539  and  _540
REMARK  223  A    between atoms: _540  and  _541
REMARK  224  A    between atoms: _541  and  _542
REMARK  225  A    between atoms: _551  and  _553
REMARK  226  A    between atoms: _553  and  _554
REMARK  227  A    between atoms: _553  and  _556
REMARK  228  A    between atoms: _556  and  _557
REMARK  229  A    between atoms: _562  and  _564
REMARK  230  A    between atoms: _564  and  _565
REMARK  231  A    between atoms: _564  and  _567
REMARK  232  A    between atoms: _569  and  _571
REMARK  233  A    between atoms: _571  and  _572
REMARK  234  A    between atoms: _571  and  _574
REMARK  235  A    between atoms: _574  and  _575
REMARK  236  A    between atoms: _575  and  _576
REMARK  237  A    between atoms: _578  and  _580
REMARK  238  A    between atoms: _580  and  _581
REMARK  239  A    between atoms: _580  and  _583
REMARK  240  A    between atoms: _583  and  _584
REMARK  241  A    between atoms: _587  and  _589
REMARK  242  A    between atoms: _589  and  _590
REMARK  243  A    between atoms: _589  and  _592
REMARK  244  A    between atoms: _592  and  _593
REMARK  245  A    between atoms: _593  and  _594
REMARK  246  A    between atoms: _594  and  _595
REMARK  247  A    between atoms: _595  and  _596
REMARK  248  A    between atoms: _600  and  _602
REMARK  249  A    between atoms: _602  and  _603
REMARK  250  A    between atoms: _602  and  _605
REMARK  251  A    between atoms: _608  and  _610
REMARK  252  A    between atoms: _610  and  _611
REMARK  253  A    between atoms: _614  and  _616
REMARK  254  A    between atoms: _616  and  _617
REMARK  255  A    between atoms: _616  and  _619
REMARK  256  A    between atoms: _619  and  _620
REMARK  257  A    between atoms: _623  and  _625
REMARK  258  A    between atoms: _625  and  _626
REMARK  259  A    between atoms: _625  and  _628
REMARK  260  A    between atoms: _628  and  _629
REMARK  261  A    between atoms: _635  and  _637
REMARK  262  A    between atoms: _637  and  _638
REMARK                            x       y       z     vdW  Elec       q    Type
REMARK                         _______ _______ _______ _____ _____    ______ ____
ROOT
ATOM      1  C   ALA A   3      20.983   2.557  16.479  0.00  0.00    +0.241 C 
ATOM      2  O   ALA A   3      20.047   3.355  16.374  0.00  0.00    -0.273 OA
ATOM      3  N   ASP A   4      21.200   1.549  15.631  0.00  0.00    -0.297 N 
ATOM      4  H   ASP A   4      22.024   0.938  15.805  0.00  0.00    +0.150 HD
ENDROOT
BRANCH   1   5
ATOM      5  CA  ALA A   3      21.987   2.680  17.621  0.00  0.00    +0.149 C 
ATOM      6  CB  ALA A   3      21.953   1.425  18.506  0.00  0.00    +0.031 C 
BRANCH   5   9
ATOM      7  C   VAL A   2      22.743   4.684  18.802  0.00  0.00    +0.241 C 
ATOM      8  O   VAL A   2      23.916   4.510  18.479  0.00  0.00    -0.273 OA
ATOM      9  N   ALA A   3      21.752   3.880  18.423  0.00  0.00    -0.297 N 
ATOM     10  H   ALA A   3      20.779   4.113  18.707  0.00  0.00    +0.150 HD
BRANCH   7  11
ATOM     11  CA  VAL A   2      22.363   5.851  19.711  0.00  0.00    +0.148 C 
BRANCH  11  14
ATOM     12  C   LYS A   1      23.190   4.813  21.756  0.00  0.00    +0.238 C 
ATOM     13  O   LYS A   1      22.331   3.926  21.730  0.00  0.00    -0.274 OA
ATOM     14  N   VAL A   2      23.245   5.805  20.872  0.00  0.00    -0.297 N 
ATOM     15  H   VAL A   2      23.936   6.569  21.012  0.00  0.00    +0.150 HD
BRANCH  12  16
ATOM     16  CA  LYS A   1      24.246   4.838  22.847  0.00  0.00    +0.145 C 
BRANCH  16  17
ATOM     17  N   LYS A   1      23.578   5.028  24.127  0.00  0.00    -0.238 NA
ATOM     18  H   LYS A   1      22.921   4.295  24.462  0.00  0.00    +0.142 HD
ENDBRANCH  16  17
BRANCH  16  19
ATOM     19  CB  LYS A   1      25.036   3.521  22.819  0.00  0.00    +0.026 C 
BRANCH  19  20
ATOM     20  CG  LYS A   1      25.924   3.255  24.023  0.00  0.00    -0.000 C 
BRANCH  20  21
ATOM     21  CD  LYS A   1      27.182   4.085  23.993  0.00  0.00    -0.024 C 
BRANCH  21  22
ATOM     22  CE  LYS A   1      28.062   3.788  25.189  0.00  0.00    -0.086 C 
BRANCH  22  23
ATOM     23  NZ  LYS A   1      29.342   4.539  25.089  0.00  0.00    +0.380 N 
ATOM     24  HZ1 LYS A   1      29.934   4.324  25.917  0.00  0.00    -0.089 HD
ATOM     25  HZ2 LYS A   1      29.142   5.559  25.059  0.00  0.00    -0.089 HD
ATOM     26  HZ3 LYS A   1      29.841   4.257  24.221  0.00  0.00    -0.089 HD
ENDBRANCH  22  23
ENDBRANCH  21  22
ENDBRANCH  20  21
ENDBRANCH  19  20
ENDBRANCH  16  19
ENDBRANCH  12  16
ENDBRANCH  11  14
BRANCH  11  27
ATOM     27  CB  VAL A   2      22.486   7.209  18.968  0.00  0.00    +0.027 C 
ATOM     28  CG2 VAL A   2      21.917   8.347  19.830  0.00  0.00    +0.002 C 
ATOM     29  CG1 VAL A   2      21.799   7.162  17.604  0.00  0.00    +0.002 C 
ENDBRANCH  11  27
ENDBRANCH   7  11
ENDBRANCH   5   9
ENDBRANCH   1   5
BRANCH   3  30
ATOM     30  CA  ASP A   4      20.354   1.244  14.469  0.00  0.00    +0.160 C 
BRANCH  30  31
ATOM     31  C   ASP A   4      20.242   2.353  13.425  0.00  0.00    +0.241 C 
ATOM     32  N   PHE A   5      21.238   3.233  13.390  0.00  0.00    -0.297 N 
ATOM     33  H   PHE A   5      22.009   3.154  14.084  0.00  0.00    +0.150 HD
ATOM     34  O   ASP A   4      19.276   2.396  12.652  0.00  0.00    -0.273 OA
BRANCH  32  35
ATOM     35  CA  PHE A   5      21.278   4.312  12.399  0.00  0.00    +0.153 C 
BRANCH  35  36
ATOM     36  C   PHE A   5      21.629   3.804  11.003  0.00  0.00    +0.241 C 
ATOM     37  O   PHE A   5      22.472   2.917  10.847  0.00  0.00    -0.273 OA
ATOM     38  N   GLY A   6      20.969   4.369   9.996  0.00  0.00    -0.296 N 
ATOM     39  H   GLY A   6      20.288   5.127  10.203  0.00  0.00    +0.150 HD
BRANCH  38  40
ATOM     40  CA  GLY A   6      21.170   3.960   8.608  0.00  0.00    +0.163 C 
BRANCH  40  41
ATOM     41  C   GLY A   6      20.440   2.673   8.271  0.00  0.00    +0.229 C 
ATOM     42  O   GLY A   6      20.991   1.577   8.407  0.00  0.00    -0.286 OA
ENDBRANCH  40  41
ENDBRANCH  38  40
ENDBRANCH  35  36
BRANCH  35  43
ATOM     43  CB  PHE A   5      22.208   5.462  12.834  0.00  0.00    +0.055 C 
BRANCH  43  44
ATOM     44  CG  PHE A   5      23.566   5.023  13.333  0.00  0.00    -0.020 A 
ATOM     45  CD2 PHE A   5      23.767   4.720  14.679  0.00  0.00    -0.004 A 
ATOM     46  CE2 PHE A   5      25.028   4.331  15.147  0.00  0.00    -0.000 A 
ATOM     47  CZ  PHE A   5      26.101   4.264  14.269  0.00  0.00    -0.000 A 
ATOM     48  CE1 PHE A   5      25.915   4.577  12.922  0.00  0.00    -0.000 A 
ATOM     49  CD1 PHE A   5      24.654   4.963  12.467  0.00  0.00    -0.004 A 
ENDBRANCH  43  44
ENDBRANCH  35  43
ENDBRANCH  32  35
ENDBRANCH  30  31
BRANCH  30  50
ATOM     50  CB  ASP A   4      18.967   0.752  14.901  0.00  0.00    +0.143 C 
BRANCH  50  51
ATOM     51  CG  ASP A   4      18.936  -0.741  15.175  0.00  0.00    +0.367 C 
ATOM     52  OD2 ASP A   4      17.886  -1.229  15.639  0.00  0.00    -0.246 OA
ATOM     53  OD1 ASP A   4      19.952  -1.428  14.917  0.00  0.00    -0.246 OA
ENDBRANCH  50  51
ENDBRANCH  30  50
ENDBRANCH   3  30
TORSDOF 22
REMARK  Name = ../refined-set-2016/3u6i/3u6i_pocket.pdb
REMARK  262 active torsions:
REMARK  status: ('A' for Active; 'I' for Inactive)
REMARK    1  A    between atoms: _1  and  _3
REMARK    2  A    between atoms: _3  and  _4
REMARK    3  A    between atoms: _3  and  _6
REMARK    4  A    between atoms: _9  and  _11
REMARK    5  A    between atoms: _11  and  _12
REMARK    6  A    between atoms: _11  and  _14
REMARK    7  A    between atoms: _17  and  _19
REMARK    8  A    between atoms: _19  and  _20
REMARK    9  A    between atoms: _19  and  _22
REMARK   10  A    between atoms: _22  and  _23
REMARK   11  A    between atoms: _26  and  _28
REMARK   12  A    between atoms: _28  and  _29
REMARK   13  A    between atoms: _31  and  _33
REMARK   14  A    between atoms: _33  and  _34
REMARK   15  A    between atoms: _33  and  _36
REMARK   16  A    between atoms: _36  and  _37
REMARK   17  A    between atoms: _37  and  _38
REMARK   18  A    between atoms: _38  and  _39
REMARK   19  A    between atoms: _48  and  _50
REMARK   20  A    between atoms: _50  and  _51
REMARK   21  A    between atoms: _53  and  _55
REMARK   22  A    between atoms: _55  and  _56
REMARK   23  A    between atoms: _55  and  _58
REMARK   24  A    between atoms: _58  and  _59
REMARK   25  A    between atoms: _64  and  _66
REMARK   26  A    between atoms: _66  and  _67
REMARK   27  A    between atoms: _66  and  _69
REMARK   28  A    between atoms: _69  and  _70
REMARK   29  A    between atoms: _76  and  _78
REMARK   30  A    between atoms: _78  and  _79
REMARK   31  A    between atoms: _81  and  _83
REMARK   32  A    between atoms: _83  and  _84
REMARK   33  A    between atoms: _83  and  _86
REMARK   34  A    between atoms: _88  and  _90
REMARK   35  A    between atoms: _90  and  _91
REMARK   36  A    between atoms: _90  and  _93
REMARK   37  A    between atoms: _96  and  _98
REMARK   38  A    between atoms: _98  and  _99
REMARK   39  A    between atoms: _98  and  _101
REMARK   40  A    between atoms: _101  and  _102
REMARK   41  A    between atoms: _107  and  _108
REMARK   42  A    between atoms: _110  and  _112
REMARK   43  A    between atoms: _112  and  _113
REMARK   44  A    between atoms: _112  and  _115
REMARK   45  A    between atoms: _115  and  _116
REMARK   46  A    between atoms: _121  and  _123
REMARK   47  A    between atoms: _123  and  _124
REMARK   48  A    between atoms: _123  and  _126
REMARK   49  A    between atoms: _126  and  _127
REMARK   50  A    between atoms: _132  and  _134
REMARK   51  A    between atoms: _134  and  _135
REMARK   52  A    between atoms: _134  and  _137
REMARK   53  A    between atoms: _139  and  _141
REMARK   54  A    between atoms: _141  and  _142
REMARK   55  A    between atoms: _145  and  _147
REMARK   56  A    between atoms: _147  and  _148
REMARK   57  A    between atoms: _147  and  _150
REMARK   58  A    between atoms: _153  and  _155
REMARK   59  A    between atoms: _155  and  _156
REMARK   60  A    between atoms: _155  and  _158
REMARK   61  A    between atoms: _158  and  _159
REMARK   62  A    between atoms: _159  and  _160
REMARK   63  A    between atoms: _160  and  _161
REMARK   64  A    between atoms: _161  and  _162
REMARK   65  A    between atoms: _166  and  _168
REMARK   66  A    between atoms: _168  and  _169
REMARK   67  A    between atoms: _168  and  _171
REMARK   68  A    between atoms: _171  and  _172
REMARK   69  A    between atoms: _174  and  _176
REMARK   70  A    between atoms: _176  and  _177
REMARK   71  A    between atoms: _176  and  _179
REMARK   72  A    between atoms: _179  and  _180
REMARK   73  A    between atoms: _183  and  _185
REMARK   74  A    between atoms: _185  and  _186
REMARK   75  A    between atoms: _185  and  _188
REMARK   76  A    between atoms: _188  and  _189
REMARK   77  A    between atoms: _192  and  _194
REMARK   78  A    between atoms: _194  and  _195
REMARK   79  A    between atoms: _194  and  _197
REMARK   80  A    between atoms: _197  and  _198
REMARK   81  A    between atoms: _198  and  _199
REMARK   82  A    between atoms: _202  and  _204
REMARK   83  A    between atoms: _204  and  _205
REMARK   84  A    between atoms: _204  and  _207
REMARK   85  A    between atoms: _210  and  _212
REMARK   86  A    between atoms: _212  and  _213
REMARK   87  A    between atoms: _212  and  _215
REMARK   88  A    between atoms: _215  and  _216
REMARK   89  A    between atoms: _216  and  _217
REMARK   90  A    between atoms: _222  and  _224
REMARK   91  A    between atoms: _224  and  _225
REMARK   92  A    between atoms: _224  and  _227
REMARK   93  A    between atoms: _227  and  _228
REMARK   94  A    between atoms: _234  and  _236
REMARK   95  A    between atoms: _236  and  _237
REMARK   96  A    between atoms: _236  and  _239
REMARK   97  A    between atoms: _239  and  _240
REMARK   98  A    between atoms: _243  and  _245
REMARK   99  A    between atoms: _245  and  _246
REMARK  100  A    between atoms: _245  and  _248
REMARK  101  A    between atoms: _248  and  _249
REMARK  102  A    between atoms: _252  and  _254
REMARK  103  A    between atoms: _254  and  _255
REMARK  104  A    between atoms: _254  and  _257
REMARK  105  A    between atoms: _257  and  _258
REMARK  106  A    between atoms: _258  and  _259
REMARK  107  A    between atoms: _262  and  _264
REMARK  108  A    between atoms: _264  and  _265
REMARK  109  A    between atoms: _267  and  _269
REMARK  110  A    between atoms: _269  and  _270
REMARK  111  A    between atoms: _269  and  _272
REMARK  112  A    between atoms: _272  and  _273
REMARK  113  A    between atoms: _276  and  _278
REMARK  114  A    between atoms: _278  and  _279
REMARK  115  A    between atoms: _278  and  _281
REMARK  116  A    between atoms: _281  and  _282
REMARK  117  A    between atoms: _285  and  _287
REMARK  118  A    between atoms: _287  and  _288
REMARK  119  A    between atoms: _287  and  _290
REMARK  120  A    between atoms: _290  and  _291
REMARK  121  A    between atoms: _291  and  _292
REMARK  122  A    between atoms: _294  and  _296
REMARK  123  A    between atoms: _296  and  _297
REMARK  124  A    between atoms: _296  and  _299
REMARK  125  A    between atoms: _299  and  _300
REMARK  126  A    between atoms: _300  and  _301
REMARK  127  A    between atoms: _301  and  _302
REMARK  128  A    between atoms: _302  and  _303
REMARK  129  A    between atoms: _307  and  _309
REMARK  130  A    between atoms: _309  and  _310
REMARK  131  A    between atoms: _309  and  _312
REMARK  132  A    between atoms: _312  and  _313
REMARK  133  A    between atoms: _319  and  _321
REMARK  134  A    between atoms: _321  and  _322
REMARK  135  A    between atoms: _321  and  _324
REMARK  136  A    between atoms: _327  and  _329
REMARK  137  A    between atoms: _329  and  _330
REMARK  138  A    between atoms: _329  and  _332
REMARK  139  A    between atoms: _332  and  _333
REMARK  140  A    between atoms: _336  and  _338
REMARK  141  A    between atoms: _338  and  _339
REMARK  142  A    between atoms: _338  and  _341
REMARK  143  A    between atoms: _341  and  _342
REMARK  144  A    between atoms: _344  and  _346
REMARK  145  A    between atoms: _346  and  _347
REMARK  146  A    between atoms: _346  and  _349
REMARK  147  A    between atoms: _349  and  _350
REMARK  148  A    between atoms: _353  and  _355
REMARK  149  A    between atoms: _355  and  _356
REMARK  150  A    between atoms: _358  and  _360
REMARK  151  A    between atoms: _360  and  _361
REMARK  152  A    between atoms: _360  and  _363
REMARK  153  A    between atoms: _363  and  _364
REMARK  154  A    between atoms: _367  and  _369
REMARK  155  A    between atoms: _369  and  _370
REMARK  156  A    between atoms: _369  and  _372
REMARK  157  A    between atoms: _375  and  _376
REMARK  158  A    between atoms: _381  and  _383
REMARK  159  A    between atoms: _383  and  _384
REMARK  160  A    between atoms: _383  and  _386
REMARK  161  A    between atoms: _386  and  _387
REMARK  162  A    between atoms: _390  and  _392
REMARK  163  A    between atoms: _392  and  _393
REMARK  164  A    between atoms: _392  and  _395
REMARK  165  A    between atoms: _398  and  _400
REMARK  166  A    between atoms: _400  and  _401
REMARK  167  A    between atoms: _400  and  _403
REMARK  168  A    between atoms: _406  and  _408
REMARK  169  A    between atoms: _408  and  _409
REMARK  170  A    between atoms: _408  and  _411
REMARK  171  A    between atoms: _411  and  _412
REMARK  172  A    between atoms: _416  and  _417
REMARK  173  A    between atoms: _422  and  _424
REMARK  174  A    between atoms: _424  and  _425
REMARK  175  A    between atoms: _424  and  _427
REMARK  176  A    between atoms: _427  and  _428
REMARK  177  A    between atoms: _433  and  _434
REMARK  178  A    between atoms: _436  and  _438
REMARK  179  A    between atoms: _438  and  _439
REMARK  180  A    between atoms: _438  and  _441
REMARK  181  A    between atoms: _441  and  _442
REMARK  182  A    between atoms: _442  and  _443
REMARK  183  A    between atoms: _445  and  _447
REMARK  184  A    between atoms: _447  and  _448
REMARK  185  A    between atoms: _447  and  _450
REMARK  186  A    between atoms: _450  and  _451
REMARK  187  A    between atoms: _451  and  _452
REMARK  188  A    between atoms: _452  and  _453
REMARK  189  A    between atoms: _453  and  _454
REMARK  190  A    between atoms: _458  and  _460
REMARK  191  A    between atoms: _460  and  _461
REMARK  192  A    between atoms: _460  and  _463
REMARK  193  A    between atoms: _463  and  _464
REMARK  194  A    between atoms: _469  and  _471
REMARK  195  A    between atoms: _471  and  _472
REMARK  196  A    between atoms: _474  and  _476
REMARK  197  A    between atoms: _476  and  _477
REMARK  198  A    between atoms: _476  and  _479
REMARK  199  A    between atoms: _479  and  _480
REMARK  200  A    between atoms: _483  and  _485
REMARK  201  A    between atoms: _485  and  _486
REMARK  202  A    between atoms: _485  and  _488
REMARK  203  A    between atoms: _488  and  _489
REMARK  204  A    between atoms: _494  and  _496
REMARK  205  A    between atoms: _496  and  _497
REMARK  206  A    between atoms: _496  and  _499
REMARK  207  A    between atoms: _499  and  _500
REMARK  208  A    between atoms: _503  and  _505
REMARK  209  A    between atoms: _505  and  _506
REMARK  210  A    between atoms: _505  and  _508
REMARK  211  A    between atoms: _508  and  _509
REMARK  212  A    between atoms: _515  and  _517
REMARK  213  A    between atoms: _517  and  _518
REMARK  214  A    between atoms: _517  and  _520
REMARK  215  A    between atoms: _523  and  _525
REMARK  216  A    between atoms: _525  and  _526
REMARK  217  A    between atoms: _525  and  _528
REMARK  218  A    between atoms: _528  and  _529
REMARK  219  A    between atoms: _534  and  _536
REMARK  220  A    between atoms: _536  and  _537
REMARK  221  A    between atoms: _536  and  _539
REMARK  222  A    between atoms: _539  and  _540
REMARK  223  A    between atoms: _540  and  _541
REMARK  224  A    between atoms: _541  and  _542
REMARK  225  A    between atoms: _551  and  _553
REMARK  226  A    between atoms: _553  and  _554
REMARK  227  A    between atoms: _553  and  _556
REMARK  228  A    between atoms: _556  and  _557
REMARK  229  A    between atoms: _562  and  _564
REMARK  230  A    between atoms: _564  and  _565
REMARK  231  A    between atoms: _564  and  _567
REMARK  232  A    between atoms: _569  and  _571
REMARK  233  A    between atoms: _571  and  _572
REMARK  234  A    between atoms: _571  and  _574
REMARK  235  A    between atoms: _574  and  _575
REMARK  236  A    between atoms: _575  and  _576
REMARK  237  A    between atoms: _578  and  _580
REMARK  238  A    between atoms: _580  and  _581
REMARK  239  A    between atoms: _580  and  _583
REMARK  240  A    between atoms: _583  and  _584
REMARK  241  A    between atoms: _587  and  _589
REMARK  242  A    between atoms: _589  and  _590
REMARK  243  A    between atoms: _589  and  _592
REMARK  244  A    between atoms: _592  and  _593
REMARK  245  A    between atoms: _593  and  _594
REMARK  246  A    between atoms: _594  and  _595
REMARK  247  A    between atoms: _595  and  _596
REMARK  248  A    between atoms: _600  and  _602
REMARK  249  A    between atoms: _602  and  _603
REMARK  250  A    between atoms: _602  and  _605
REMARK  251  A    between atoms: _608  and  _610
REMARK  252  A    between atoms: _610  and  _611
REMARK  253  A    between atoms: _614  and  _616
REMARK  254  A    between atoms: _616  and  _617
REMARK  255  A    between atoms: _616  and  _619
REMARK  256  A    between atoms: _619  and  _620
REMARK  257  A    between atoms: _623  and  _625
REMARK  258  A    between atoms: _625  and  _626
REMARK  259  A    between atoms: _625  and  _628
REMARK  260  A    between atoms: _628  and  _629
REMARK  261  A    between atoms: _635  and  _637
REMARK  262  A    between atoms: _637  and  _638
REMARK                            x       y       z     vdW  Elec       q    Type
REMARK                         _______ _______ _______ _____ _____    ______ ____
ROOT
ATOM      1  O   HOH     1      30.192   4.104  16.593  0.00  0.00    +0.000 OA
ENDROOT
TORSDOF 0
REMARK  Name = ../refined-set-2016/3u6i/3u6i_pocket.pdb
REMARK  262 active torsions:
REMARK  status: ('A' for Active; 'I' for Inactive)
REMARK    1  A    between atoms: _1  and  _3
REMARK    2  A    between atoms: _3  and  _4
REMARK    3  A    between atoms: _3  and  _6
REMARK    4  A    between atoms: _9  and  _11
REMARK    5  A    between atoms: _11  and  _12
REMARK    6  A    between atoms: _11  and  _14
REMARK    7  A    between atoms: _17  and  _19
REMARK    8  A    between atoms: _19  and  _20
REMARK    9  A    between atoms: _19  and  _22
REMARK   10  A    between atoms: _22  and  _23
REMARK   11  A    between atoms: _26  and  _28
REMARK   12  A    between atoms: _28  and  _29
REMARK   13  A    between atoms: _31  and  _33
REMARK   14  A    between atoms: _33  and  _34
REMARK   15  A    between atoms: _33  and  _36
REMARK   16  A    between atoms: _36  and  _37
REMARK   17  A    between atoms: _37  and  _38
REMARK   18  A    between atoms: _38  and  _39
REMARK   19  A    between atoms: _48  and  _50
REMARK   20  A    between atoms: _50  and  _51
REMARK   21  A    between atoms: _53  and  _55
REMARK   22  A    between atoms: _55  and  _56
REMARK   23  A    between atoms: _55  and  _58
REMARK   24  A    between atoms: _58  and  _59
REMARK   25  A    between atoms: _64  and  _66
REMARK   26  A    between atoms: _66  and  _67
REMARK   27  A    between atoms: _66  and  _69
REMARK   28  A    between atoms: _69  and  _70
REMARK   29  A    between atoms: _76  and  _78
REMARK   30  A    between atoms: _78  and  _79
REMARK   31  A    between atoms: _81  and  _83
REMARK   32  A    between atoms: _83  and  _84
REMARK   33  A    between atoms: _83  and  _86
REMARK   34  A    between atoms: _88  and  _90
REMARK   35  A    between atoms: _90  and  _91
REMARK   36  A    between atoms: _90  and  _93
REMARK   37  A    between atoms: _96  and  _98
REMARK   38  A    between atoms: _98  and  _99
REMARK   39  A    between atoms: _98  and  _101
REMARK   40  A    between atoms: _101  and  _102
REMARK   41  A    between atoms: _107  and  _108
REMARK   42  A    between atoms: _110  and  _112
REMARK   43  A    between atoms: _112  and  _113
REMARK   44  A    between atoms: _112  and  _115
REMARK   45  A    between atoms: _115  and  _116
REMARK   46  A    between atoms: _121  and  _123
REMARK   47  A    between atoms: _123  and  _124
REMARK   48  A    between atoms: _123  and  _126
REMARK   49  A    between atoms: _126  and  _127
REMARK   50  A    between atoms: _132  and  _134
REMARK   51  A    between atoms: _134  and  _135
REMARK   52  A    between atoms: _134  and  _137
REMARK   53  A    between atoms: _139  and  _141
REMARK   54  A    between atoms: _141  and  _142
REMARK   55  A    between atoms: _145  and  _147
REMARK   56  A    between atoms: _147  and  _148
REMARK   57  A    between atoms: _147  and  _150
REMARK   58  A    between atoms: _153  and  _155
REMARK   59  A    between atoms: _155  and  _156
REMARK   60  A    between atoms: _155  and  _158
REMARK   61  A    between atoms: _158  and  _159
REMARK   62  A    between atoms: _159  and  _160
REMARK   63  A    between atoms: _160  and  _161
REMARK   64  A    between atoms: _161  and  _162
REMARK   65  A    between atoms: _166  and  _168
REMARK   66  A    between atoms: _168  and  _169
REMARK   67  A    between atoms: _168  and  _171
REMARK   68  A    between atoms: _171  and  _172
REMARK   69  A    between atoms: _174  and  _176
REMARK   70  A    between atoms: _176  and  _177
REMARK   71  A    between atoms: _176  and  _179
REMARK   72  A    between atoms: _179  and  _180
REMARK   73  A    between atoms: _183  and  _185
REMARK   74  A    between atoms: _185  and  _186
REMARK   75  A    between atoms: _185  and  _188
REMARK   76  A    between atoms: _188  and  _189
REMARK   77  A    between atoms: _192  and  _194
REMARK   78  A    between atoms: _194  and  _195
REMARK   79  A    between atoms: _194  and  _197
REMARK   80  A    between atoms: _197  and  _198
REMARK   81  A    between atoms: _198  and  _199
REMARK   82  A    between atoms: _202  and  _204
REMARK   83  A    between atoms: _204  and  _205
REMARK   84  A    between atoms: _204  and  _207
REMARK   85  A    between atoms: _210  and  _212
REMARK   86  A    between atoms: _212  and  _213
REMARK   87  A    between atoms: _212  and  _215
REMARK   88  A    between atoms: _215  and  _216
REMARK   89  A    between atoms: _216  and  _217
REMARK   90  A    between atoms: _222  and  _224
REMARK   91  A    between atoms: _224  and  _225
REMARK   92  A    between atoms: _224  and  _227
REMARK   93  A    between atoms: _227  and  _228
REMARK   94  A    between atoms: _234  and  _236
REMARK   95  A    between atoms: _236  and  _237
REMARK   96  A    between atoms: _236  and  _239
REMARK   97  A    between atoms: _239  and  _240
REMARK   98  A    between atoms: _243  and  _245
REMARK   99  A    between atoms: _245  and  _246
REMARK  100  A    between atoms: _245  and  _248
REMARK  101  A    between atoms: _248  and  _249
REMARK  102  A    between atoms: _252  and  _254
REMARK  103  A    between atoms: _254  and  _255
REMARK  104  A    between atoms: _254  and  _257
REMARK  105  A    between atoms: _257  and  _258
REMARK  106  A    between atoms: _258  and  _259
REMARK  107  A    between atoms: _262  and  _264
REMARK  108  A    between atoms: _264  and  _265
REMARK  109  A    between atoms: _267  and  _269
REMARK  110  A    between atoms: _269  and  _270
REMARK  111  A    between atoms: _269  and  _272
REMARK  112  A    between atoms: _272  and  _273
REMARK  113  A    between atoms: _276  and  _278
REMARK  114  A    between atoms: _278  and  _279
REMARK  115  A    between atoms: _278  and  _281
REMARK  116  A    between atoms: _281  and  _282
REMARK  117  A    between atoms: _285  and  _287
REMARK  118  A    between atoms: _287  and  _288
REMARK  119  A    between atoms: _287  and  _290
REMARK  120  A    between atoms: _290  and  _291
REMARK  121  A    between atoms: _291  and  _292
REMARK  122  A    between atoms: _294  and  _296
REMARK  123  A    between atoms: _296  and  _297
REMARK  124  A    between atoms: _296  and  _299
REMARK  125  A    between atoms: _299  and  _300
REMARK  126  A    between atoms: _300  and  _301
REMARK  127  A    between atoms: _301  and  _302
REMARK  128  A    between atoms: _302  and  _303
REMARK  129  A    between atoms: _307  and  _309
REMARK  130  A    between atoms: _309  and  _310
REMARK  131  A    between atoms: _309  and  _312
REMARK  132  A    between atoms: _312  and  _313
REMARK  133  A    between atoms: _319  and  _321
REMARK  134  A    between atoms: _321  and  _322
REMARK  135  A    between atoms: _321  and  _324
REMARK  136  A    between atoms: _327  and  _329
REMARK  137  A    between atoms: _329  and  _330
REMARK  138  A    between atoms: _329  and  _332
REMARK  139  A    between atoms: _332  and  _333
REMARK  140  A    between atoms: _336  and  _338
REMARK  141  A    between atoms: _338  and  _339
REMARK  142  A    between atoms: _338  and  _341
REMARK  143  A    between atoms: _341  and  _342
REMARK  144  A    between atoms: _344  and  _346
REMARK  145  A    between atoms: _346  and  _347
REMARK  146  A    between atoms: _346  and  _349
REMARK  147  A    between atoms: _349  and  _350
REMARK  148  A    between atoms: _353  and  _355
REMARK  149  A    between atoms: _355  and  _356
REMARK  150  A    between atoms: _358  and  _360
REMARK  151  A    between atoms: _360  and  _361
REMARK  152  A    between atoms: _360  and  _363
REMARK  153  A    between atoms: _363  and  _364
REMARK  154  A    between atoms: _367  and  _369
REMARK  155  A    between atoms: _369  and  _370
REMARK  156  A    between atoms: _369  and  _372
REMARK  157  A    between atoms: _375  and  _376
REMARK  158  A    between atoms: _381  and  _383
REMARK  159  A    between atoms: _383  and  _384
REMARK  160  A    between atoms: _383  and  _386
REMARK  161  A    between atoms: _386  and  _387
REMARK  162  A    between atoms: _390  and  _392
REMARK  163  A    between atoms: _392  and  _393
REMARK  164  A    between atoms: _392  and  _395
REMARK  165  A    between atoms: _398  and  _400
REMARK  166  A    between atoms: _400  and  _401
REMARK  167  A    between atoms: _400  and  _403
REMARK  168  A    between atoms: _406  and  _408
REMARK  169  A    between atoms: _408  and  _409
REMARK  170  A    between atoms: _408  and  _411
REMARK  171  A    between atoms: _411  and  _412
REMARK  172  A    between atoms: _416  and  _417
REMARK  173  A    between atoms: _422  and  _424
REMARK  174  A    between atoms: _424  and  _425
REMARK  175  A    between atoms: _424  and  _427
REMARK  176  A    between atoms: _427  and  _428
REMARK  177  A    between atoms: _433  and  _434
REMARK  178  A    between atoms: _436  and  _438
REMARK  179  A    between atoms: _438  and  _439
REMARK  180  A    between atoms: _438  and  _441
REMARK  181  A    between atoms: _441  and  _442
REMARK  182  A    between atoms: _442  and  _443
REMARK  183  A    between atoms: _445  and  _447
REMARK  184  A    between atoms: _447  and  _448
REMARK  185  A    between atoms: _447  and  _450
REMARK  186  A    between atoms: _450  and  _451
REMARK  187  A    between atoms: _451  and  _452
REMARK  188  A    between atoms: _452  and  _453
REMARK  189  A    between atoms: _453  and  _454
REMARK  190  A    between atoms: _458  and  _460
REMARK  191  A    between atoms: _460  and  _461
REMARK  192  A    between atoms: _460  and  _463
REMARK  193  A    between atoms: _463  and  _464
REMARK  194  A    between atoms: _469  and  _471
REMARK  195  A    between atoms: _471  and  _472
REMARK  196  A    between atoms: _474  and  _476
REMARK  197  A    between atoms: _476  and  _477
REMARK  198  A    between atoms: _476  and  _479
REMARK  199  A    between atoms: _479  and  _480
REMARK  200  A    between atoms: _483  and  _485
REMARK  201  A    between atoms: _485  and  _486
REMARK  202  A    between atoms: _485  and  _488
REMARK  203  A    between atoms: _488  and  _489
REMARK  204  A    between atoms: _494  and  _496
REMARK  205  A    between atoms: _496  and  _497
REMARK  206  A    between atoms: _496  and  _499
REMARK  207  A    between atoms: _499  and  _500
REMARK  208  A    between atoms: _503  and  _505
REMARK  209  A    between atoms: _505  and  _506
REMARK  210  A    between atoms: _505  and  _508
REMARK  211  A    between atoms: _508  and  _509
REMARK  212  A    between atoms: _515  and  _517
REMARK  213  A    between atoms: _517  and  _518
REMARK  214  A    between atoms: _517  and  _520
REMARK  215  A    between atoms: _523  and  _525
REMARK  216  A    between atoms: _525  and  _526
REMARK  217  A    between atoms: _525  and  _528
REMARK  218  A    between atoms: _528  and  _529
REMARK  219  A    between atoms: _534  and  _536
REMARK  220  A    between atoms: _536  and  _537
REMARK  221  A    between atoms: _536  and  _539
REMARK  222  A    between atoms: _539  and  _540
REMARK  223  A    between atoms: _540  and  _541
REMARK  224  A    between atoms: _541  and  _542
REMARK  225  A    between atoms: _551  and  _553
REMARK  226  A    between atoms: _553  and  _554
REMARK  227  A    between atoms: _553  and  _556
REMARK  228  A    between atoms: _556  and  _557
REMARK  229  A    between atoms: _562  and  _564
REMARK  230  A    between atoms: _564  and  _565
REMARK  231  A    between atoms: _564  and  _567
REMARK  232  A    between atoms: _569  and  _571
REMARK  233  A    between atoms: _571  and  _572
REMARK  234  A    between atoms: _571  and  _574
REMARK  235  A    between atoms: _574  and  _575
REMARK  236  A    between atoms: _575  and  _576
REMARK  237  A    between atoms: _578  and  _580
REMARK  238  A    between atoms: _580  and  _581
REMARK  239  A    between atoms: _580  and  _583
REMARK  240  A    between atoms: _583  and  _584
REMARK  241  A    between atoms: _587  and  _589
REMARK  242  A    between atoms: _589  and  _590
REMARK  243  A    between atoms: _589  and  _592
REMARK  244  A    between atoms: _592  and  _593
REMARK  245  A    between atoms: _593  and  _594
REMARK  246  A    between atoms: _594  and  _595
REMARK  247  A    between atoms: _595  and  _596
REMARK  248  A    between atoms: _600  and  _602
REMARK  249  A    between atoms: _602  and  _603
REMARK  250  A    between atoms: _602  and  _605
REMARK  251  A    between atoms: _608  and  _610
REMARK  252  A    between atoms: _610  and  _611
REMARK  253  A    between atoms: _614  and  _616
REMARK  254  A    between atoms: _616  and  _617
REMARK  255  A    between atoms: _616  and  _619
REMARK  256  A    between atoms: _619  and  _620
REMARK  257  A    between atoms: _623  and  _625
REMARK  258  A    between atoms: _625  and  _626
REMARK  259  A    between atoms: _625  and  _628
REMARK  260  A    between atoms: _628  and  _629
REMARK  261  A    between atoms: _635  and  _637
REMARK  262  A    between atoms: _637  and  _638
REMARK                            x       y       z     vdW  Elec       q    Type
REMARK                         _______ _______ _______ _____ _____    ______ ____
ROOT
ATOM      1  O   HOH     1      26.895  -2.664  29.237  0.00  0.00    +0.000 OA
ENDROOT
TORSDOF 0
REMARK  Name = ../refined-set-2016/3u6i/3u6i_pocket.pdb
REMARK  262 active torsions:
REMARK  status: ('A' for Active; 'I' for Inactive)
REMARK    1  A    between atoms: _1  and  _3
REMARK    2  A    between atoms: _3  and  _4
REMARK    3  A    between atoms: _3  and  _6
REMARK    4  A    between atoms: _9  and  _11
REMARK    5  A    between atoms: _11  and  _12
REMARK    6  A    between atoms: _11  and  _14
REMARK    7  A    between atoms: _17  and  _19
REMARK    8  A    between atoms: _19  and  _20
REMARK    9  A    between atoms: _19  and  _22
REMARK   10  A    between atoms: _22  and  _23
REMARK   11  A    between atoms: _26  and  _28
REMARK   12  A    between atoms: _28  and  _29
REMARK   13  A    between atoms: _31  and  _33
REMARK   14  A    between atoms: _33  and  _34
REMARK   15  A    between atoms: _33  and  _36
REMARK   16  A    between atoms: _36  and  _37
REMARK   17  A    between atoms: _37  and  _38
REMARK   18  A    between atoms: _38  and  _39
REMARK   19  A    between atoms: _48  and  _50
REMARK   20  A    between atoms: _50  and  _51
REMARK   21  A    between atoms: _53  and  _55
REMARK   22  A    between atoms: _55  and  _56
REMARK   23  A    between atoms: _55  and  _58
REMARK   24  A    between atoms: _58  and  _59
REMARK   25  A    between atoms: _64  and  _66
REMARK   26  A    between atoms: _66  and  _67
REMARK   27  A    between atoms: _66  and  _69
REMARK   28  A    between atoms: _69  and  _70
REMARK   29  A    between atoms: _76  and  _78
REMARK   30  A    between atoms: _78  and  _79
REMARK   31  A    between atoms: _81  and  _83
REMARK   32  A    between atoms: _83  and  _84
REMARK   33  A    between atoms: _83  and  _86
REMARK   34  A    between atoms: _88  and  _90
REMARK   35  A    between atoms: _90  and  _91
REMARK   36  A    between atoms: _90  and  _93
REMARK   37  A    between atoms: _96  and  _98
REMARK   38  A    between atoms: _98  and  _99
REMARK   39  A    between atoms: _98  and  _101
REMARK   40  A    between atoms: _101  and  _102
REMARK   41  A    between atoms: _107  and  _108
REMARK   42  A    between atoms: _110  and  _112
REMARK   43  A    between atoms: _112  and  _113
REMARK   44  A    between atoms: _112  and  _115
REMARK   45  A    between atoms: _115  and  _116
REMARK   46  A    between atoms: _121  and  _123
REMARK   47  A    between atoms: _123  and  _124
REMARK   48  A    between atoms: _123  and  _126
REMARK   49  A    between atoms: _126  and  _127
REMARK   50  A    between atoms: _132  and  _134
REMARK   51  A    between atoms: _134  and  _135
REMARK   52  A    between atoms: _134  and  _137
REMARK   53  A    between atoms: _139  and  _141
REMARK   54  A    between atoms: _141  and  _142
REMARK   55  A    between atoms: _145  and  _147
REMARK   56  A    between atoms: _147  and  _148
REMARK   57  A    between atoms: _147  and  _150
REMARK   58  A    between atoms: _153  and  _155
REMARK   59  A    between atoms: _155  and  _156
REMARK   60  A    between atoms: _155  and  _158
REMARK   61  A    between atoms: _158  and  _159
REMARK   62  A    between atoms: _159  and  _160
REMARK   63  A    between atoms: _160  and  _161
REMARK   64  A    between atoms: _161  and  _162
REMARK   65  A    between atoms: _166  and  _168
REMARK   66  A    between atoms: _168  and  _169
REMARK   67  A    between atoms: _168  and  _171
REMARK   68  A    between atoms: _171  and  _172
REMARK   69  A    between atoms: _174  and  _176
REMARK   70  A    between atoms: _176  and  _177
REMARK   71  A    between atoms: _176  and  _179
REMARK   72  A    between atoms: _179  and  _180
REMARK   73  A    between atoms: _183  and  _185
REMARK   74  A    between atoms: _185  and  _186
REMARK   75  A    between atoms: _185  and  _188
REMARK   76  A    between atoms: _188  and  _189
REMARK   77  A    between atoms: _192  and  _194
REMARK   78  A    between atoms: _194  and  _195
REMARK   79  A    between atoms: _194  and  _197
REMARK   80  A    between atoms: _197  and  _198
REMARK   81  A    between atoms: _198  and  _199
REMARK   82  A    between atoms: _202  and  _204
REMARK   83  A    between atoms: _204  and  _205
REMARK   84  A    between atoms: _204  and  _207
REMARK   85  A    between atoms: _210  and  _212
REMARK   86  A    between atoms: _212  and  _213
REMARK   87  A    between atoms: _212  and  _215
REMARK   88  A    between atoms: _215  and  _216
REMARK   89  A    between atoms: _216  and  _217
REMARK   90  A    between atoms: _222  and  _224
REMARK   91  A    between atoms: _224  and  _225
REMARK   92  A    between atoms: _224  and  _227
REMARK   93  A    between atoms: _227  and  _228
REMARK   94  A    between atoms: _234  and  _236
REMARK   95  A    between atoms: _236  and  _237
REMARK   96  A    between atoms: _236  and  _239
REMARK   97  A    between atoms: _239  and  _240
REMARK   98  A    between atoms: _243  and  _245
REMARK   99  A    between atoms: _245  and  _246
REMARK  100  A    between atoms: _245  and  _248
REMARK  101  A    between atoms: _248  and  _249
REMARK  102  A    between atoms: _252  and  _254
REMARK  103  A    between atoms: _254  and  _255
REMARK  104  A    between atoms: _254  and  _257
REMARK  105  A    between atoms: _257  and  _258
REMARK  106  A    between atoms: _258  and  _259
REMARK  107  A    between atoms: _262  and  _264
REMARK  108  A    between atoms: _264  and  _265
REMARK  109  A    between atoms: _267  and  _269
REMARK  110  A    between atoms: _269  and  _270
REMARK  111  A    between atoms: _269  and  _272
REMARK  112  A    between atoms: _272  and  _273
REMARK  113  A    between atoms: _276  and  _278
REMARK  114  A    between atoms: _278  and  _279
REMARK  115  A    between atoms: _278  and  _281
REMARK  116  A    between atoms: _281  and  _282
REMARK  117  A    between atoms: _285  and  _287
REMARK  118  A    between atoms: _287  and  _288
REMARK  119  A    between atoms: _287  and  _290
REMARK  120  A    between atoms: _290  and  _291
REMARK  121  A    between atoms: _291  and  _292
REMARK  122  A    between atoms: _294  and  _296
REMARK  123  A    between atoms: _296  and  _297
REMARK  124  A    between atoms: _296  and  _299
REMARK  125  A    between atoms: _299  and  _300
REMARK  126  A    between atoms: _300  and  _301
REMARK  127  A    between atoms: _301  and  _302
REMARK  128  A    between atoms: _302  and  _303
REMARK  129  A    between atoms: _307  and  _309
REMARK  130  A    between atoms: _309  and  _310
REMARK  131  A    between atoms: _309  and  _312
REMARK  132  A    between atoms: _312  and  _313
REMARK  133  A    between atoms: _319  and  _321
REMARK  134  A    between atoms: _321  and  _322
REMARK  135  A    between atoms: _321  and  _324
REMARK  136  A    between atoms: _327  and  _329
REMARK  137  A    between atoms: _329  and  _330
REMARK  138  A    between atoms: _329  and  _332
REMARK  139  A    between atoms: _332  and  _333
REMARK  140  A    between atoms: _336  and  _338
REMARK  141  A    between atoms: _338  and  _339
REMARK  142  A    between atoms: _338  and  _341
REMARK  143  A    between atoms: _341  and  _342
REMARK  144  A    between atoms: _344  and  _346
REMARK  145  A    between atoms: _346  and  _347
REMARK  146  A    between atoms: _346  and  _349
REMARK  147  A    between atoms: _349  and  _350
REMARK  148  A    between atoms: _353  and  _355
REMARK  149  A    between atoms: _355  and  _356
REMARK  150  A    between atoms: _358  and  _360
REMARK  151  A    between atoms: _360  and  _361
REMARK  152  A    between atoms: _360  and  _363
REMARK  153  A    between atoms: _363  and  _364
REMARK  154  A    between atoms: _367  and  _369
REMARK  155  A    between atoms: _369  and  _370
REMARK  156  A    between atoms: _369  and  _372
REMARK  157  A    between atoms: _375  and  _376
REMARK  158  A    between atoms: _381  and  _383
REMARK  159  A    between atoms: _383  and  _384
REMARK  160  A    between atoms: _383  and  _386
REMARK  161  A    between atoms: _386  and  _387
REMARK  162  A    between atoms: _390  and  _392
REMARK  163  A    between atoms: _392  and  _393
REMARK  164  A    between atoms: _392  and  _395
REMARK  165  A    between atoms: _398  and  _400
REMARK  166  A    between atoms: _400  and  _401
REMARK  167  A    between atoms: _400  and  _403
REMARK  168  A    between atoms: _406  and  _408
REMARK  169  A    between atoms: _408  and  _409
REMARK  170  A    between atoms: _408  and  _411
REMARK  171  A    between atoms: _411  and  _412
REMARK  172  A    between atoms: _416  and  _417
REMARK  173  A    between atoms: _422  and  _424
REMARK  174  A    between atoms: _424  and  _425
REMARK  175  A    between atoms: _424  and  _427
REMARK  176  A    between atoms: _427  and  _428
REMARK  177  A    between atoms: _433  and  _434
REMARK  178  A    between atoms: _436  and  _438
REMARK  179  A    between atoms: _438  and  _439
REMARK  180  A    between atoms: _438  and  _441
REMARK  181  A    between atoms: _441  and  _442
REMARK  182  A    between atoms: _442  and  _443
REMARK  183  A    between atoms: _445  and  _447
REMARK  184  A    between atoms: _447  and  _448
REMARK  185  A    between atoms: _447  and  _450
REMARK  186  A    between atoms: _450  and  _451
REMARK  187  A    between atoms: _451  and  _452
REMARK  188  A    between atoms: _452  and  _453
REMARK  189  A    between atoms: _453  and  _454
REMARK  190  A    between atoms: _458  and  _460
REMARK  191  A    between atoms: _460  and  _461
REMARK  192  A    between atoms: _460  and  _463
REMARK  193  A    between atoms: _463  and  _464
REMARK  194  A    between atoms: _469  and  _471
REMARK  195  A    between atoms: _471  and  _472
REMARK  196  A    between atoms: _474  and  _476
REMARK  197  A    between atoms: _476  and  _477
REMARK  198  A    between atoms: _476  and  _479
REMARK  199  A    between atoms: _479  and  _480
REMARK  200  A    between atoms: _483  and  _485
REMARK  201  A    between atoms: _485  and  _486
REMARK  202  A    between atoms: _485  and  _488
REMARK  203  A    between atoms: _488  and  _489
REMARK  204  A    between atoms: _494  and  _496
REMARK  205  A    between atoms: _496  and  _497
REMARK  206  A    between atoms: _496  and  _499
REMARK  207  A    between atoms: _499  and  _500
REMARK  208  A    between atoms: _503  and  _505
REMARK  209  A    between atoms: _505  and  _506
REMARK  210  A    between atoms: _505  and  _508
REMARK  211  A    between atoms: _508  and  _509
REMARK  212  A    between atoms: _515  and  _517
REMARK  213  A    between atoms: _517  and  _518
REMARK  214  A    between atoms: _517  and  _520
REMARK  215  A    between atoms: _523  and  _525
REMARK  216  A    between atoms: _525  and  _526
REMARK  217  A    between atoms: _525  and  _528
REMARK  218  A    between atoms: _528  and  _529
REMARK  219  A    between atoms: _534  and  _536
REMARK  220  A    between atoms: _536  and  _537
REMARK  221  A    between atoms: _536  and  _539
REMARK  222  A    between atoms: _539  and  _540
REMARK  223  A    between atoms: _540  and  _541
REMARK  224  A    between atoms: _541  and  _542
REMARK  225  A    between atoms: _551  and  _553
REMARK  226  A    between atoms: _553  and  _554
REMARK  227  A    between atoms: _553  and  _556
REMARK  228  A    between atoms: _556  and  _557
REMARK  229  A    between atoms: _562  and  _564
REMARK  230  A    between atoms: _564  and  _565
REMARK  231  A    between atoms: _564  and  _567
REMARK  232  A    between atoms: _569  and  _571
REMARK  233  A    between atoms: _571  and  _572
REMARK  234  A    between atoms: _571  and  _574
REMARK  235  A    between atoms: _574  and  _575
REMARK  236  A    between atoms: _575  and  _576
REMARK  237  A    between atoms: _578  and  _580
REMARK  238  A    between atoms: _580  and  _581
REMARK  239  A    between atoms: _580  and  _583
REMARK  240  A    between atoms: _583  and  _584
REMARK  241  A    between atoms: _587  and  _589
REMARK  242  A    between atoms: _589  and  _590
REMARK  243  A    between atoms: _589  and  _592
REMARK  244  A    between atoms: _592  and  _593
REMARK  245  A    between atoms: _593  and  _594
REMARK  246  A    between atoms: _594  and  _595
REMARK  247  A    between atoms: _595  and  _596
REMARK  248  A    between atoms: _600  and  _602
REMARK  249  A    between atoms: _602  and  _603
REMARK  250  A    between atoms: _602  and  _605
REMARK  251  A    between atoms: _608  and  _610
REMARK  252  A    between atoms: _610  and  _611
REMARK  253  A    between atoms: _614  and  _616
REMARK  254  A    between atoms: _616  and  _617
REMARK  255  A    between atoms: _616  and  _619
REMARK  256  A    between atoms: _619  and  _620
REMARK  257  A    between atoms: _623  and  _625
REMARK  258  A    between atoms: _625  and  _626
REMARK  259  A    between atoms: _625  and  _628
REMARK  260  A    between atoms: _628  and  _629
REMARK  261  A    between atoms: _635  and  _637
REMARK  262  A    between atoms: _637  and  _638
REMARK                            x       y       z     vdW  Elec       q    Type
REMARK                         _______ _______ _______ _____ _____    ______ ____
ROOT
ATOM      1  O   HOH     1      17.757  -3.291  32.803  0.00  0.00    +0.000 OA
ENDROOT
TORSDOF 0
REMARK  Name = ../refined-set-2016/3u6i/3u6i_pocket.pdb
REMARK  262 active torsions:
REMARK  status: ('A' for Active; 'I' for Inactive)
REMARK    1  A    between atoms: _1  and  _3
REMARK    2  A    between atoms: _3  and  _4
REMARK    3  A    between atoms: _3  and  _6
REMARK    4  A    between atoms: _9  and  _11
REMARK    5  A    between atoms: _11  and  _12
REMARK    6  A    between atoms: _11  and  _14
REMARK    7  A    between atoms: _17  and  _19
REMARK    8  A    between atoms: _19  and  _20
REMARK    9  A    between atoms: _19  and  _22
REMARK   10  A    between atoms: _22  and  _23
REMARK   11  A    between atoms: _26  and  _28
REMARK   12  A    between atoms: _28  and  _29
REMARK   13  A    between atoms: _31  and  _33
REMARK   14  A    between atoms: _33  and  _34
REMARK   15  A    between atoms: _33  and  _36
REMARK   16  A    between atoms: _36  and  _37
REMARK   17  A    between atoms: _37  and  _38
REMARK   18  A    between atoms: _38  and  _39
REMARK   19  A    between atoms: _48  and  _50
REMARK   20  A    between atoms: _50  and  _51
REMARK   21  A    between atoms: _53  and  _55
REMARK   22  A    between atoms: _55  and  _56
REMARK   23  A    between atoms: _55  and  _58
REMARK   24  A    between atoms: _58  and  _59
REMARK   25  A    between atoms: _64  and  _66
REMARK   26  A    between atoms: _66  and  _67
REMARK   27  A    between atoms: _66  and  _69
REMARK   28  A    between atoms: _69  and  _70
REMARK   29  A    between atoms: _76  and  _78
REMARK   30  A    between atoms: _78  and  _79
REMARK   31  A    between atoms: _81  and  _83
REMARK   32  A    between atoms: _83  and  _84
REMARK   33  A    between atoms: _83  and  _86
REMARK   34  A    between atoms: _88  and  _90
REMARK   35  A    between atoms: _90  and  _91
REMARK   36  A    between atoms: _90  and  _93
REMARK   37  A    between atoms: _96  and  _98
REMARK   38  A    between atoms: _98  and  _99
REMARK   39  A    between atoms: _98  and  _101
REMARK   40  A    between atoms: _101  and  _102
REMARK   41  A    between atoms: _107  and  _108
REMARK   42  A    between atoms: _110  and  _112
REMARK   43  A    between atoms: _112  and  _113
REMARK   44  A    between atoms: _112  and  _115
REMARK   45  A    between atoms: _115  and  _116
REMARK   46  A    between atoms: _121  and  _123
REMARK   47  A    between atoms: _123  and  _124
REMARK   48  A    between atoms: _123  and  _126
REMARK   49  A    between atoms: _126  and  _127
REMARK   50  A    between atoms: _132  and  _134
REMARK   51  A    between atoms: _134  and  _135
REMARK   52  A    between atoms: _134  and  _137
REMARK   53  A    between atoms: _139  and  _141
REMARK   54  A    between atoms: _141  and  _142
REMARK   55  A    between atoms: _145  and  _147
REMARK   56  A    between atoms: _147  and  _148
REMARK   57  A    between atoms: _147  and  _150
REMARK   58  A    between atoms: _153  and  _155
REMARK   59  A    between atoms: _155  and  _156
REMARK   60  A    between atoms: _155  and  _158
REMARK   61  A    between atoms: _158  and  _159
REMARK   62  A    between atoms: _159  and  _160
REMARK   63  A    between atoms: _160  and  _161
REMARK   64  A    between atoms: _161  and  _162
REMARK   65  A    between atoms: _166  and  _168
REMARK   66  A    between atoms: _168  and  _169
REMARK   67  A    between atoms: _168  and  _171
REMARK   68  A    between atoms: _171  and  _172
REMARK   69  A    between atoms: _174  and  _176
REMARK   70  A    between atoms: _176  and  _177
REMARK   71  A    between atoms: _176  and  _179
REMARK   72  A    between atoms: _179  and  _180
REMARK   73  A    between atoms: _183  and  _185
REMARK   74  A    between atoms: _185  and  _186
REMARK   75  A    between atoms: _185  and  _188
REMARK   76  A    between atoms: _188  and  _189
REMARK   77  A    between atoms: _192  and  _194
REMARK   78  A    between atoms: _194  and  _195
REMARK   79  A    between atoms: _194  and  _197
REMARK   80  A    between atoms: _197  and  _198
REMARK   81  A    between atoms: _198  and  _199
REMARK   82  A    between atoms: _202  and  _204
REMARK   83  A    between atoms: _204  and  _205
REMARK   84  A    between atoms: _204  and  _207
REMARK   85  A    between atoms: _210  and  _212
REMARK   86  A    between atoms: _212  and  _213
REMARK   87  A    between atoms: _212  and  _215
REMARK   88  A    between atoms: _215  and  _216
REMARK   89  A    between atoms: _216  and  _217
REMARK   90  A    between atoms: _222  and  _224
REMARK   91  A    between atoms: _224  and  _225
REMARK   92  A    between atoms: _224  and  _227
REMARK   93  A    between atoms: _227  and  _228
REMARK   94  A    between atoms: _234  and  _236
REMARK   95  A    between atoms: _236  and  _237
REMARK   96  A    between atoms: _236  and  _239
REMARK   97  A    between atoms: _239  and  _240
REMARK   98  A    between atoms: _243  and  _245
REMARK   99  A    between atoms: _245  and  _246
REMARK  100  A    between atoms: _245  and  _248
REMARK  101  A    between atoms: _248  and  _249
REMARK  102  A    between atoms: _252  and  _254
REMARK  103  A    between atoms: _254  and  _255
REMARK  104  A    between atoms: _254  and  _257
REMARK  105  A    between atoms: _257  and  _258
REMARK  106  A    between atoms: _258  and  _259
REMARK  107  A    between atoms: _262  and  _264
REMARK  108  A    between atoms: _264  and  _265
REMARK  109  A    between atoms: _267  and  _269
REMARK  110  A    between atoms: _269  and  _270
REMARK  111  A    between atoms: _269  and  _272
REMARK  112  A    between atoms: _272  and  _273
REMARK  113  A    between atoms: _276  and  _278
REMARK  114  A    between atoms: _278  and  _279
REMARK  115  A    between atoms: _278  and  _281
REMARK  116  A    between atoms: _281  and  _282
REMARK  117  A    between atoms: _285  and  _287
REMARK  118  A    between atoms: _287  and  _288
REMARK  119  A    between atoms: _287  and  _290
REMARK  120  A    between atoms: _290  and  _291
REMARK  121  A    between atoms: _291  and  _292
REMARK  122  A    between atoms: _294  and  _296
REMARK  123  A    between atoms: _296  and  _297
REMARK  124  A    between atoms: _296  and  _299
REMARK  125  A    between atoms: _299  and  _300
REMARK  126  A    between atoms: _300  and  _301
REMARK  127  A    between atoms: _301  and  _302
REMARK  128  A    between atoms: _302  and  _303
REMARK  129  A    between atoms: _307  and  _309
REMARK  130  A    between atoms: _309  and  _310
REMARK  131  A    between atoms: _309  and  _312
REMARK  132  A    between atoms: _312  and  _313
REMARK  133  A    between atoms: _319  and  _321
REMARK  134  A    between atoms: _321  and  _322
REMARK  135  A    between atoms: _321  and  _324
REMARK  136  A    between atoms: _327  and  _329
REMARK  137  A    between atoms: _329  and  _330
REMARK  138  A    between atoms: _329  and  _332
REMARK  139  A    between atoms: _332  and  _333
REMARK  140  A    between atoms: _336  and  _338
REMARK  141  A    between atoms: _338  and  _339
REMARK  142  A    between atoms: _338  and  _341
REMARK  143  A    between atoms: _341  and  _342
REMARK  144  A    between atoms: _344  and  _346
REMARK  145  A    between atoms: _346  and  _347
REMARK  146  A    between atoms: _346  and  _349
REMARK  147  A    between atoms: _349  and  _350
REMARK  148  A    between atoms: _353  and  _355
REMARK  149  A    between atoms: _355  and  _356
REMARK  150  A    between atoms: _358  and  _360
REMARK  151  A    between atoms: _360  and  _361
REMARK  152  A    between atoms: _360  and  _363
REMARK  153  A    between atoms: _363  and  _364
REMARK  154  A    between atoms: _367  and  _369
REMARK  155  A    between atoms: _369  and  _370
REMARK  156  A    between atoms: _369  and  _372
REMARK  157  A    between atoms: _375  and  _376
REMARK  158  A    between atoms: _381  and  _383
REMARK  159  A    between atoms: _383  and  _384
REMARK  160  A    between atoms: _383  and  _386
REMARK  161  A    between atoms: _386  and  _387
REMARK  162  A    between atoms: _390  and  _392
REMARK  163  A    between atoms: _392  and  _393
REMARK  164  A    between atoms: _392  and  _395
REMARK  165  A    between atoms: _398  and  _400
REMARK  166  A    between atoms: _400  and  _401
REMARK  167  A    between atoms: _400  and  _403
REMARK  168  A    between atoms: _406  and  _408
REMARK  169  A    between atoms: _408  and  _409
REMARK  170  A    between atoms: _408  and  _411
REMARK  171  A    between atoms: _411  and  _412
REMARK  172  A    between atoms: _416  and  _417
REMARK  173  A    between atoms: _422  and  _424
REMARK  174  A    between atoms: _424  and  _425
REMARK  175  A    between atoms: _424  and  _427
REMARK  176  A    between atoms: _427  and  _428
REMARK  177  A    between atoms: _433  and  _434
REMARK  178  A    between atoms: _436  and  _438
REMARK  179  A    between atoms: _438  and  _439
REMARK  180  A    between atoms: _438  and  _441
REMARK  181  A    between atoms: _441  and  _442
REMARK  182  A    between atoms: _442  and  _443
REMARK  183  A    between atoms: _445  and  _447
REMARK  184  A    between atoms: _447  and  _448
REMARK  185  A    between atoms: _447  and  _450
REMARK  186  A    between atoms: _450  and  _451
REMARK  187  A    between atoms: _451  and  _452
REMARK  188  A    between atoms: _452  and  _453
REMARK  189  A    between atoms: _453  and  _454
REMARK  190  A    between atoms: _458  and  _460
REMARK  191  A    between atoms: _460  and  _461
REMARK  192  A    between atoms: _460  and  _463
REMARK  193  A    between atoms: _463  and  _464
REMARK  194  A    between atoms: _469  and  _471
REMARK  195  A    between atoms: _471  and  _472
REMARK  196  A    between atoms: _474  and  _476
REMARK  197  A    between atoms: _476  and  _477
REMARK  198  A    between atoms: _476  and  _479
REMARK  199  A    between atoms: _479  and  _480
REMARK  200  A    between atoms: _483  and  _485
REMARK  201  A    between atoms: _485  and  _486
REMARK  202  A    between atoms: _485  and  _488
REMARK  203  A    between atoms: _488  and  _489
REMARK  204  A    between atoms: _494  and  _496
REMARK  205  A    between atoms: _496  and  _497
REMARK  206  A    between atoms: _496  and  _499
REMARK  207  A    between atoms: _499  and  _500
REMARK  208  A    between atoms: _503  and  _505
REMARK  209  A    between atoms: _505  and  _506
REMARK  210  A    between atoms: _505  and  _508
REMARK  211  A    between atoms: _508  and  _509
REMARK  212  A    between atoms: _515  and  _517
REMARK  213  A    between atoms: _517  and  _518
REMARK  214  A    between atoms: _517  and  _520
REMARK  215  A    between atoms: _523  and  _525
REMARK  216  A    between atoms: _525  and  _526
REMARK  217  A    between atoms: _525  and  _528
REMARK  218  A    between atoms: _528  and  _529
REMARK  219  A    between atoms: _534  and  _536
REMARK  220  A    between atoms: _536  and  _537
REMARK  221  A    between atoms: _536  and  _539
REMARK  222  A    between atoms: _539  and  _540
REMARK  223  A    between atoms: _540  and  _541
REMARK  224  A    between atoms: _541  and  _542
REMARK  225  A    between atoms: _551  and  _553
REMARK  226  A    between atoms: _553  and  _554
REMARK  227  A    between atoms: _553  and  _556
REMARK  228  A    between atoms: _556  and  _557
REMARK  229  A    between atoms: _562  and  _564
REMARK  230  A    between atoms: _564  and  _565
REMARK  231  A    between atoms: _564  and  _567
REMARK  232  A    between atoms: _569  and  _571
REMARK  233  A    between atoms: _571  and  _572
REMARK  234  A    between atoms: _571  and  _574
REMARK  235  A    between atoms: _574  and  _575
REMARK  236  A    between atoms: _575  and  _576
REMARK  237  A    between atoms: _578  and  _580
REMARK  238  A    between atoms: _580  and  _581
REMARK  239  A    between atoms: _580  and  _583
REMARK  240  A    between atoms: _583  and  _584
REMARK  241  A    between atoms: _587  and  _589
REMARK  242  A    between atoms: _589  and  _590
REMARK  243  A    between atoms: _589  and  _592
REMARK  244  A    between atoms: _592  and  _593
REMARK  245  A    between atoms: _593  and  _594
REMARK  246  A    between atoms: _594  and  _595
REMARK  247  A    between atoms: _595  and  _596
REMARK  248  A    between atoms: _600  and  _602
REMARK  249  A    between atoms: _602  and  _603
REMARK  250  A    between atoms: _602  and  _605
REMARK  251  A    between atoms: _608  and  _610
REMARK  252  A    between atoms: _610  and  _611
REMARK  253  A    between atoms: _614  and  _616
REMARK  254  A    between atoms: _616  and  _617
REMARK  255  A    between atoms: _616  and  _619
REMARK  256  A    between atoms: _619  and  _620
REMARK  257  A    between atoms: _623  and  _625
REMARK  258  A    between atoms: _625  and  _626
REMARK  259  A    between atoms: _625  and  _628
REMARK  260  A    between atoms: _628  and  _629
REMARK  261  A    between atoms: _635  and  _637
REMARK  262  A    between atoms: _637  and  _638
REMARK                            x       y       z     vdW  Elec       q    Type
REMARK                         _______ _______ _______ _____ _____    ______ ____
ROOT
ATOM      1  O   HOH     1      30.079  -3.580  27.237  0.00  0.00    +0.000 OA
ENDROOT
TORSDOF 0
REMARK  Name = ../refined-set-2016/3u6i/3u6i_pocket.pdb
REMARK  262 active torsions:
REMARK  status: ('A' for Active; 'I' for Inactive)
REMARK    1  A    between atoms: _1  and  _3
REMARK    2  A    between atoms: _3  and  _4
REMARK    3  A    between atoms: _3  and  _6
REMARK    4  A    between atoms: _9  and  _11
REMARK    5  A    between atoms: _11  and  _12
REMARK    6  A    between atoms: _11  and  _14
REMARK    7  A    between atoms: _17  and  _19
REMARK    8  A    between atoms: _19  and  _20
REMARK    9  A    between atoms: _19  and  _22
REMARK   10  A    between atoms: _22  and  _23
REMARK   11  A    between atoms: _26  and  _28
REMARK   12  A    between atoms: _28  and  _29
REMARK   13  A    between atoms: _31  and  _33
REMARK   14  A    between atoms: _33  and  _34
REMARK   15  A    between atoms: _33  and  _36
REMARK   16  A    between atoms: _36  and  _37
REMARK   17  A    between atoms: _37  and  _38
REMARK   18  A    between atoms: _38  and  _39
REMARK   19  A    between atoms: _48  and  _50
REMARK   20  A    between atoms: _50  and  _51
REMARK   21  A    between atoms: _53  and  _55
REMARK   22  A    between atoms: _55  and  _56
REMARK   23  A    between atoms: _55  and  _58
REMARK   24  A    between atoms: _58  and  _59
REMARK   25  A    between atoms: _64  and  _66
REMARK   26  A    between atoms: _66  and  _67
REMARK   27  A    between atoms: _66  and  _69
REMARK   28  A    between atoms: _69  and  _70
REMARK   29  A    between atoms: _76  and  _78
REMARK   30  A    between atoms: _78  and  _79
REMARK   31  A    between atoms: _81  and  _83
REMARK   32  A    between atoms: _83  and  _84
REMARK   33  A    between atoms: _83  and  _86
REMARK   34  A    between atoms: _88  and  _90
REMARK   35  A    between atoms: _90  and  _91
REMARK   36  A    between atoms: _90  and  _93
REMARK   37  A    between atoms: _96  and  _98
REMARK   38  A    between atoms: _98  and  _99
REMARK   39  A    between atoms: _98  and  _101
REMARK   40  A    between atoms: _101  and  _102
REMARK   41  A    between atoms: _107  and  _108
REMARK   42  A    between atoms: _110  and  _112
REMARK   43  A    between atoms: _112  and  _113
REMARK   44  A    between atoms: _112  and  _115
REMARK   45  A    between atoms: _115  and  _116
REMARK   46  A    between atoms: _121  and  _123
REMARK   47  A    between atoms: _123  and  _124
REMARK   48  A    between atoms: _123  and  _126
REMARK   49  A    between atoms: _126  and  _127
REMARK   50  A    between atoms: _132  and  _134
REMARK   51  A    between atoms: _134  and  _135
REMARK   52  A    between atoms: _134  and  _137
REMARK   53  A    between atoms: _139  and  _141
REMARK   54  A    between atoms: _141  and  _142
REMARK   55  A    between atoms: _145  and  _147
REMARK   56  A    between atoms: _147  and  _148
REMARK   57  A    between atoms: _147  and  _150
REMARK   58  A    between atoms: _153  and  _155
REMARK   59  A    between atoms: _155  and  _156
REMARK   60  A    between atoms: _155  and  _158
REMARK   61  A    between atoms: _158  and  _159
REMARK   62  A    between atoms: _159  and  _160
REMARK   63  A    between atoms: _160  and  _161
REMARK   64  A    between atoms: _161  and  _162
REMARK   65  A    between atoms: _166  and  _168
REMARK   66  A    between atoms: _168  and  _169
REMARK   67  A    between atoms: _168  and  _171
REMARK   68  A    between atoms: _171  and  _172
REMARK   69  A    between atoms: _174  and  _176
REMARK   70  A    between atoms: _176  and  _177
REMARK   71  A    between atoms: _176  and  _179
REMARK   72  A    between atoms: _179  and  _180
REMARK   73  A    between atoms: _183  and  _185
REMARK   74  A    between atoms: _185  and  _186
REMARK   75  A    between atoms: _185  and  _188
REMARK   76  A    between atoms: _188  and  _189
REMARK   77  A    between atoms: _192  and  _194
REMARK   78  A    between atoms: _194  and  _195
REMARK   79  A    between atoms: _194  and  _197
REMARK   80  A    between atoms: _197  and  _198
REMARK   81  A    between atoms: _198  and  _199
REMARK   82  A    between atoms: _202  and  _204
REMARK   83  A    between atoms: _204  and  _205
REMARK   84  A    between atoms: _204  and  _207
REMARK   85  A    between atoms: _210  and  _212
REMARK   86  A    between atoms: _212  and  _213
REMARK   87  A    between atoms: _212  and  _215
REMARK   88  A    between atoms: _215  and  _216
REMARK   89  A    between atoms: _216  and  _217
REMARK   90  A    between atoms: _222  and  _224
REMARK   91  A    between atoms: _224  and  _225
REMARK   92  A    between atoms: _224  and  _227
REMARK   93  A    between atoms: _227  and  _228
REMARK   94  A    between atoms: _234  and  _236
REMARK   95  A    between atoms: _236  and  _237
REMARK   96  A    between atoms: _236  and  _239
REMARK   97  A    between atoms: _239  and  _240
REMARK   98  A    between atoms: _243  and  _245
REMARK   99  A    between atoms: _245  and  _246
REMARK  100  A    between atoms: _245  and  _248
REMARK  101  A    between atoms: _248  and  _249
REMARK  102  A    between atoms: _252  and  _254
REMARK  103  A    between atoms: _254  and  _255
REMARK  104  A    between atoms: _254  and  _257
REMARK  105  A    between atoms: _257  and  _258
REMARK  106  A    between atoms: _258  and  _259
REMARK  107  A    between atoms: _262  and  _264
REMARK  108  A    between atoms: _264  and  _265
REMARK  109  A    between atoms: _267  and  _269
REMARK  110  A    between atoms: _269  and  _270
REMARK  111  A    between atoms: _269  and  _272
REMARK  112  A    between atoms: _272  and  _273
REMARK  113  A    between atoms: _276  and  _278
REMARK  114  A    between atoms: _278  and  _279
REMARK  115  A    between atoms: _278  and  _281
REMARK  116  A    between atoms: _281  and  _282
REMARK  117  A    between atoms: _285  and  _287
REMARK  118  A    between atoms: _287  and  _288
REMARK  119  A    between atoms: _287  and  _290
REMARK  120  A    between atoms: _290  and  _291
REMARK  121  A    between atoms: _291  and  _292
REMARK  122  A    between atoms: _294  and  _296
REMARK  123  A    between atoms: _296  and  _297
REMARK  124  A    between atoms: _296  and  _299
REMARK  125  A    between atoms: _299  and  _300
REMARK  126  A    between atoms: _300  and  _301
REMARK  127  A    between atoms: _301  and  _302
REMARK  128  A    between atoms: _302  and  _303
REMARK  129  A    between atoms: _307  and  _309
REMARK  130  A    between atoms: _309  and  _310
REMARK  131  A    between atoms: _309  and  _312
REMARK  132  A    between atoms: _312  and  _313
REMARK  133  A    between atoms: _319  and  _321
REMARK  134  A    between atoms: _321  and  _322
REMARK  135  A    between atoms: _321  and  _324
REMARK  136  A    between atoms: _327  and  _329
REMARK  137  A    between atoms: _329  and  _330
REMARK  138  A    between atoms: _329  and  _332
REMARK  139  A    between atoms: _332  and  _333
REMARK  140  A    between atoms: _336  and  _338
REMARK  141  A    between atoms: _338  and  _339
REMARK  142  A    between atoms: _338  and  _341
REMARK  143  A    between atoms: _341  and  _342
REMARK  144  A    between atoms: _344  and  _346
REMARK  145  A    between atoms: _346  and  _347
REMARK  146  A    between atoms: _346  and  _349
REMARK  147  A    between atoms: _349  and  _350
REMARK  148  A    between atoms: _353  and  _355
REMARK  149  A    between atoms: _355  and  _356
REMARK  150  A    between atoms: _358  and  _360
REMARK  151  A    between atoms: _360  and  _361
REMARK  152  A    between atoms: _360  and  _363
REMARK  153  A    between atoms: _363  and  _364
REMARK  154  A    between atoms: _367  and  _369
REMARK  155  A    between atoms: _369  and  _370
REMARK  156  A    between atoms: _369  and  _372
REMARK  157  A    between atoms: _375  and  _376
REMARK  158  A    between atoms: _381  and  _383
REMARK  159  A    between atoms: _383  and  _384
REMARK  160  A    between atoms: _383  and  _386
REMARK  161  A    between atoms: _386  and  _387
REMARK  162  A    between atoms: _390  and  _392
REMARK  163  A    between atoms: _392  and  _393
REMARK  164  A    between atoms: _392  and  _395
REMARK  165  A    between atoms: _398  and  _400
REMARK  166  A    between atoms: _400  and  _401
REMARK  167  A    between atoms: _400  and  _403
REMARK  168  A    between atoms: _406  and  _408
REMARK  169  A    between atoms: _408  and  _409
REMARK  170  A    between atoms: _408  and  _411
REMARK  171  A    between atoms: _411  and  _412
REMARK  172  A    between atoms: _416  and  _417
REMARK  173  A    between atoms: _422  and  _424
REMARK  174  A    between atoms: _424  and  _425
REMARK  175  A    between atoms: _424  and  _427
REMARK  176  A    between atoms: _427  and  _428
REMARK  177  A    between atoms: _433  and  _434
REMARK  178  A    between atoms: _436  and  _438
REMARK  179  A    between atoms: _438  and  _439
REMARK  180  A    between atoms: _438  and  _441
REMARK  181  A    between atoms: _441  and  _442
REMARK  182  A    between atoms: _442  and  _443
REMARK  183  A    between atoms: _445  and  _447
REMARK  184  A    between atoms: _447  and  _448
REMARK  185  A    between atoms: _447  and  _450
REMARK  186  A    between atoms: _450  and  _451
REMARK  187  A    between atoms: _451  and  _452
REMARK  188  A    between atoms: _452  and  _453
REMARK  189  A    between atoms: _453  and  _454
REMARK  190  A    between atoms: _458  and  _460
REMARK  191  A    between atoms: _460  and  _461
REMARK  192  A    between atoms: _460  and  _463
REMARK  193  A    between atoms: _463  and  _464
REMARK  194  A    between atoms: _469  and  _471
REMARK  195  A    between atoms: _471  and  _472
REMARK  196  A    between atoms: _474  and  _476
REMARK  197  A    between atoms: _476  and  _477
REMARK  198  A    between atoms: _476  and  _479
REMARK  199  A    between atoms: _479  and  _480
REMARK  200  A    between atoms: _483  and  _485
REMARK  201  A    between atoms: _485  and  _486
REMARK  202  A    between atoms: _485  and  _488
REMARK  203  A    between atoms: _488  and  _489
REMARK  204  A    between atoms: _494  and  _496
REMARK  205  A    between atoms: _496  and  _497
REMARK  206  A    between atoms: _496  and  _499
REMARK  207  A    between atoms: _499  and  _500
REMARK  208  A    between atoms: _503  and  _505
REMARK  209  A    between atoms: _505  and  _506
REMARK  210  A    between atoms: _505  and  _508
REMARK  211  A    between atoms: _508  and  _509
REMARK  212  A    between atoms: _515  and  _517
REMARK  213  A    between atoms: _517  and  _518
REMARK  214  A    between atoms: _517  and  _520
REMARK  215  A    between atoms: _523  and  _525
REMARK  216  A    between atoms: _525  and  _526
REMARK  217  A    between atoms: _525  and  _528
REMARK  218  A    between atoms: _528  and  _529
REMARK  219  A    between atoms: _534  and  _536
REMARK  220  A    between atoms: _536  and  _537
REMARK  221  A    between atoms: _536  and  _539
REMARK  222  A    between atoms: _539  and  _540
REMARK  223  A    between atoms: _540  and  _541
REMARK  224  A    between atoms: _541  and  _542
REMARK  225  A    between atoms: _551  and  _553
REMARK  226  A    between atoms: _553  and  _554
REMARK  227  A    between atoms: _553  and  _556
REMARK  228  A    between atoms: _556  and  _557
REMARK  229  A    between atoms: _562  and  _564
REMARK  230  A    between atoms: _564  and  _565
REMARK  231  A    between atoms: _564  and  _567
REMARK  232  A    between atoms: _569  and  _571
REMARK  233  A    between atoms: _571  and  _572
REMARK  234  A    between atoms: _571  and  _574
REMARK  235  A    between atoms: _574  and  _575
REMARK  236  A    between atoms: _575  and  _576
REMARK  237  A    between atoms: _578  and  _580
REMARK  238  A    between atoms: _580  and  _581
REMARK  239  A    between atoms: _580  and  _583
REMARK  240  A    between atoms: _583  and  _584
REMARK  241  A    between atoms: _587  and  _589
REMARK  242  A    between atoms: _589  and  _590
REMARK  243  A    between atoms: _589  and  _592
REMARK  244  A    between atoms: _592  and  _593
REMARK  245  A    between atoms: _593  and  _594
REMARK  246  A    between atoms: _594  and  _595
REMARK  247  A    between atoms: _595  and  _596
REMARK  248  A    between atoms: _600  and  _602
REMARK  249  A    between atoms: _602  and  _603
REMARK  250  A    between atoms: _602  and  _605
REMARK  251  A    between atoms: _608  and  _610
REMARK  252  A    between atoms: _610  and  _611
REMARK  253  A    between atoms: _614  and  _616
REMARK  254  A    between atoms: _616  and  _617
REMARK  255  A    between atoms: _616  and  _619
REMARK  256  A    between atoms: _619  and  _620
REMARK  257  A    between atoms: _623  and  _625
REMARK  258  A    between atoms: _625  and  _626
REMARK  259  A    between atoms: _625  and  _628
REMARK  260  A    between atoms: _628  and  _629
REMARK  261  A    between atoms: _635  and  _637
REMARK  262  A    between atoms: _637  and  _638
REMARK                            x       y       z     vdW  Elec       q    Type
REMARK                         _______ _______ _______ _____ _____    ______ ____
ROOT
ATOM      1  O   HOH     1      17.892 -12.637  19.144  0.00  0.00    +0.000 OA
ENDROOT
TORSDOF 0
REMARK  Name = ../refined-set-2016/3u6i/3u6i_pocket.pdb
REMARK  262 active torsions:
REMARK  status: ('A' for Active; 'I' for Inactive)
REMARK    1  A    between atoms: _1  and  _3
REMARK    2  A    between atoms: _3  and  _4
REMARK    3  A    between atoms: _3  and  _6
REMARK    4  A    between atoms: _9  and  _11
REMARK    5  A    between atoms: _11  and  _12
REMARK    6  A    between atoms: _11  and  _14
REMARK    7  A    between atoms: _17  and  _19
REMARK    8  A    between atoms: _19  and  _20
REMARK    9  A    between atoms: _19  and  _22
REMARK   10  A    between atoms: _22  and  _23
REMARK   11  A    between atoms: _26  and  _28
REMARK   12  A    between atoms: _28  and  _29
REMARK   13  A    between atoms: _31  and  _33
REMARK   14  A    between atoms: _33  and  _34
REMARK   15  A    between atoms: _33  and  _36
REMARK   16  A    between atoms: _36  and  _37
REMARK   17  A    between atoms: _37  and  _38
REMARK   18  A    between atoms: _38  and  _39
REMARK   19  A    between atoms: _48  and  _50
REMARK   20  A    between atoms: _50  and  _51
REMARK   21  A    between atoms: _53  and  _55
REMARK   22  A    between atoms: _55  and  _56
REMARK   23  A    between atoms: _55  and  _58
REMARK   24  A    between atoms: _58  and  _59
REMARK   25  A    between atoms: _64  and  _66
REMARK   26  A    between atoms: _66  and  _67
REMARK   27  A    between atoms: _66  and  _69
REMARK   28  A    between atoms: _69  and  _70
REMARK   29  A    between atoms: _76  and  _78
REMARK   30  A    between atoms: _78  and  _79
REMARK   31  A    between atoms: _81  and  _83
REMARK   32  A    between atoms: _83  and  _84
REMARK   33  A    between atoms: _83  and  _86
REMARK   34  A    between atoms: _88  and  _90
REMARK   35  A    between atoms: _90  and  _91
REMARK   36  A    between atoms: _90  and  _93
REMARK   37  A    between atoms: _96  and  _98
REMARK   38  A    between atoms: _98  and  _99
REMARK   39  A    between atoms: _98  and  _101
REMARK   40  A    between atoms: _101  and  _102
REMARK   41  A    between atoms: _107  and  _108
REMARK   42  A    between atoms: _110  and  _112
REMARK   43  A    between atoms: _112  and  _113
REMARK   44  A    between atoms: _112  and  _115
REMARK   45  A    between atoms: _115  and  _116
REMARK   46  A    between atoms: _121  and  _123
REMARK   47  A    between atoms: _123  and  _124
REMARK   48  A    between atoms: _123  and  _126
REMARK   49  A    between atoms: _126  and  _127
REMARK   50  A    between atoms: _132  and  _134
REMARK   51  A    between atoms: _134  and  _135
REMARK   52  A    between atoms: _134  and  _137
REMARK   53  A    between atoms: _139  and  _141
REMARK   54  A    between atoms: _141  and  _142
REMARK   55  A    between atoms: _145  and  _147
REMARK   56  A    between atoms: _147  and  _148
REMARK   57  A    between atoms: _147  and  _150
REMARK   58  A    between atoms: _153  and  _155
REMARK   59  A    between atoms: _155  and  _156
REMARK   60  A    between atoms: _155  and  _158
REMARK   61  A    between atoms: _158  and  _159
REMARK   62  A    between atoms: _159  and  _160
REMARK   63  A    between atoms: _160  and  _161
REMARK   64  A    between atoms: _161  and  _162
REMARK   65  A    between atoms: _166  and  _168
REMARK   66  A    between atoms: _168  and  _169
REMARK   67  A    between atoms: _168  and  _171
REMARK   68  A    between atoms: _171  and  _172
REMARK   69  A    between atoms: _174  and  _176
REMARK   70  A    between atoms: _176  and  _177
REMARK   71  A    between atoms: _176  and  _179
REMARK   72  A    between atoms: _179  and  _180
REMARK   73  A    between atoms: _183  and  _185
REMARK   74  A    between atoms: _185  and  _186
REMARK   75  A    between atoms: _185  and  _188
REMARK   76  A    between atoms: _188  and  _189
REMARK   77  A    between atoms: _192  and  _194
REMARK   78  A    between atoms: _194  and  _195
REMARK   79  A    between atoms: _194  and  _197
REMARK   80  A    between atoms: _197  and  _198
REMARK   81  A    between atoms: _198  and  _199
REMARK   82  A    between atoms: _202  and  _204
REMARK   83  A    between atoms: _204  and  _205
REMARK   84  A    between atoms: _204  and  _207
REMARK   85  A    between atoms: _210  and  _212
REMARK   86  A    between atoms: _212  and  _213
REMARK   87  A    between atoms: _212  and  _215
REMARK   88  A    between atoms: _215  and  _216
REMARK   89  A    between atoms: _216  and  _217
REMARK   90  A    between atoms: _222  and  _224
REMARK   91  A    between atoms: _224  and  _225
REMARK   92  A    between atoms: _224  and  _227
REMARK   93  A    between atoms: _227  and  _228
REMARK   94  A    between atoms: _234  and  _236
REMARK   95  A    between atoms: _236  and  _237
REMARK   96  A    between atoms: _236  and  _239
REMARK   97  A    between atoms: _239  and  _240
REMARK   98  A    between atoms: _243  and  _245
REMARK   99  A    between atoms: _245  and  _246
REMARK  100  A    between atoms: _245  and  _248
REMARK  101  A    between atoms: _248  and  _249
REMARK  102  A    between atoms: _252  and  _254
REMARK  103  A    between atoms: _254  and  _255
REMARK  104  A    between atoms: _254  and  _257
REMARK  105  A    between atoms: _257  and  _258
REMARK  106  A    between atoms: _258  and  _259
REMARK  107  A    between atoms: _262  and  _264
REMARK  108  A    between atoms: _264  and  _265
REMARK  109  A    between atoms: _267  and  _269
REMARK  110  A    between atoms: _269  and  _270
REMARK  111  A    between atoms: _269  and  _272
REMARK  112  A    between atoms: _272  and  _273
REMARK  113  A    between atoms: _276  and  _278
REMARK  114  A    between atoms: _278  and  _279
REMARK  115  A    between atoms: _278  and  _281
REMARK  116  A    between atoms: _281  and  _282
REMARK  117  A    between atoms: _285  and  _287
REMARK  118  A    between atoms: _287  and  _288
REMARK  119  A    between atoms: _287  and  _290
REMARK  120  A    between atoms: _290  and  _291
REMARK  121  A    between atoms: _291  and  _292
REMARK  122  A    between atoms: _294  and  _296
REMARK  123  A    between atoms: _296  and  _297
REMARK  124  A    between atoms: _296  and  _299
REMARK  125  A    between atoms: _299  and  _300
REMARK  126  A    between atoms: _300  and  _301
REMARK  127  A    between atoms: _301  and  _302
REMARK  128  A    between atoms: _302  and  _303
REMARK  129  A    between atoms: _307  and  _309
REMARK  130  A    between atoms: _309  and  _310
REMARK  131  A    between atoms: _309  and  _312
REMARK  132  A    between atoms: _312  and  _313
REMARK  133  A    between atoms: _319  and  _321
REMARK  134  A    between atoms: _321  and  _322
REMARK  135  A    between atoms: _321  and  _324
REMARK  136  A    between atoms: _327  and  _329
REMARK  137  A    between atoms: _329  and  _330
REMARK  138  A    between atoms: _329  and  _332
REMARK  139  A    between atoms: _332  and  _333
REMARK  140  A    between atoms: _336  and  _338
REMARK  141  A    between atoms: _338  and  _339
REMARK  142  A    between atoms: _338  and  _341
REMARK  143  A    between atoms: _341  and  _342
REMARK  144  A    between atoms: _344  and  _346
REMARK  145  A    between atoms: _346  and  _347
REMARK  146  A    between atoms: _346  and  _349
REMARK  147  A    between atoms: _349  and  _350
REMARK  148  A    between atoms: _353  and  _355
REMARK  149  A    between atoms: _355  and  _356
REMARK  150  A    between atoms: _358  and  _360
REMARK  151  A    between atoms: _360  and  _361
REMARK  152  A    between atoms: _360  and  _363
REMARK  153  A    between atoms: _363  and  _364
REMARK  154  A    between atoms: _367  and  _369
REMARK  155  A    between atoms: _369  and  _370
REMARK  156  A    between atoms: _369  and  _372
REMARK  157  A    between atoms: _375  and  _376
REMARK  158  A    between atoms: _381  and  _383
REMARK  159  A    between atoms: _383  and  _384
REMARK  160  A    between atoms: _383  and  _386
REMARK  161  A    between atoms: _386  and  _387
REMARK  162  A    between atoms: _390  and  _392
REMARK  163  A    between atoms: _392  and  _393
REMARK  164  A    between atoms: _392  and  _395
REMARK  165  A    between atoms: _398  and  _400
REMARK  166  A    between atoms: _400  and  _401
REMARK  167  A    between atoms: _400  and  _403
REMARK  168  A    between atoms: _406  and  _408
REMARK  169  A    between atoms: _408  and  _409
REMARK  170  A    between atoms: _408  and  _411
REMARK  171  A    between atoms: _411  and  _412
REMARK  172  A    between atoms: _416  and  _417
REMARK  173  A    between atoms: _422  and  _424
REMARK  174  A    between atoms: _424  and  _425
REMARK  175  A    between atoms: _424  and  _427
REMARK  176  A    between atoms: _427  and  _428
REMARK  177  A    between atoms: _433  and  _434
REMARK  178  A    between atoms: _436  and  _438
REMARK  179  A    between atoms: _438  and  _439
REMARK  180  A    between atoms: _438  and  _441
REMARK  181  A    between atoms: _441  and  _442
REMARK  182  A    between atoms: _442  and  _443
REMARK  183  A    between atoms: _445  and  _447
REMARK  184  A    between atoms: _447  and  _448
REMARK  185  A    between atoms: _447  and  _450
REMARK  186  A    between atoms: _450  and  _451
REMARK  187  A    between atoms: _451  and  _452
REMARK  188  A    between atoms: _452  and  _453
REMARK  189  A    between atoms: _453  and  _454
REMARK  190  A    between atoms: _458  and  _460
REMARK  191  A    between atoms: _460  and  _461
REMARK  192  A    between atoms: _460  and  _463
REMARK  193  A    between atoms: _463  and  _464
REMARK  194  A    between atoms: _469  and  _471
REMARK  195  A    between atoms: _471  and  _472
REMARK  196  A    between atoms: _474  and  _476
REMARK  197  A    between atoms: _476  and  _477
REMARK  198  A    between atoms: _476  and  _479
REMARK  199  A    between atoms: _479  and  _480
REMARK  200  A    between atoms: _483  and  _485
REMARK  201  A    between atoms: _485  and  _486
REMARK  202  A    between atoms: _485  and  _488
REMARK  203  A    between atoms: _488  and  _489
REMARK  204  A    between atoms: _494  and  _496
REMARK  205  A    between atoms: _496  and  _497
REMARK  206  A    between atoms: _496  and  _499
REMARK  207  A    between atoms: _499  and  _500
REMARK  208  A    between atoms: _503  and  _505
REMARK  209  A    between atoms: _505  and  _506
REMARK  210  A    between atoms: _505  and  _508
REMARK  211  A    between atoms: _508  and  _509
REMARK  212  A    between atoms: _515  and  _517
REMARK  213  A    between atoms: _517  and  _518
REMARK  214  A    between atoms: _517  and  _520
REMARK  215  A    between atoms: _523  and  _525
REMARK  216  A    between atoms: _525  and  _526
REMARK  217  A    between atoms: _525  and  _528
REMARK  218  A    between atoms: _528  and  _529
REMARK  219  A    between atoms: _534  and  _536
REMARK  220  A    between atoms: _536  and  _537
REMARK  221  A    between atoms: _536  and  _539
REMARK  222  A    between atoms: _539  and  _540
REMARK  223  A    between atoms: _540  and  _541
REMARK  224  A    between atoms: _541  and  _542
REMARK  225  A    between atoms: _551  and  _553
REMARK  226  A    between atoms: _553  and  _554
REMARK  227  A    between atoms: _553  and  _556
REMARK  228  A    between atoms: _556  and  _557
REMARK  229  A    between atoms: _562  and  _564
REMARK  230  A    between atoms: _564  and  _565
REMARK  231  A    between atoms: _564  and  _567
REMARK  232  A    between atoms: _569  and  _571
REMARK  233  A    between atoms: _571  and  _572
REMARK  234  A    between atoms: _571  and  _574
REMARK  235  A    between atoms: _574  and  _575
REMARK  236  A    between atoms: _575  and  _576
REMARK  237  A    between atoms: _578  and  _580
REMARK  238  A    between atoms: _580  and  _581
REMARK  239  A    between atoms: _580  and  _583
REMARK  240  A    between atoms: _583  and  _584
REMARK  241  A    between atoms: _587  and  _589
REMARK  242  A    between atoms: _589  and  _590
REMARK  243  A    between atoms: _589  and  _592
REMARK  244  A    between atoms: _592  and  _593
REMARK  245  A    between atoms: _593  and  _594
REMARK  246  A    between atoms: _594  and  _595
REMARK  247  A    between atoms: _595  and  _596
REMARK  248  A    between atoms: _600  and  _602
REMARK  249  A    between atoms: _602  and  _603
REMARK  250  A    between atoms: _602  and  _605
REMARK  251  A    between atoms: _608  and  _610
REMARK  252  A    between atoms: _610  and  _611
REMARK  253  A    between atoms: _614  and  _616
REMARK  254  A    between atoms: _616  and  _617
REMARK  255  A    between atoms: _616  and  _619
REMARK  256  A    between atoms: _619  and  _620
REMARK  257  A    between atoms: _623  and  _625
REMARK  258  A    between atoms: _625  and  _626
REMARK  259  A    between atoms: _625  and  _628
REMARK  260  A    between atoms: _628  and  _629
REMARK  261  A    between atoms: _635  and  _637
REMARK  262  A    between atoms: _637  and  _638
REMARK                            x       y       z     vdW  Elec       q    Type
REMARK                         _______ _______ _______ _____ _____    ______ ____
ROOT
ATOM      1  O   HOH     1      23.338  -4.760   5.963  0.00  0.00    +0.000 OA
ENDROOT
TORSDOF 0
REMARK  Name = ../refined-set-2016/3u6i/3u6i_pocket.pdb
REMARK  262 active torsions:
REMARK  status: ('A' for Active; 'I' for Inactive)
REMARK    1  A    between atoms: _1  and  _3
REMARK    2  A    between atoms: _3  and  _4
REMARK    3  A    between atoms: _3  and  _6
REMARK    4  A    between atoms: _9  and  _11
REMARK    5  A    between atoms: _11  and  _12
REMARK    6  A    between atoms: _11  and  _14
REMARK    7  A    between atoms: _17  and  _19
REMARK    8  A    between atoms: _19  and  _20
REMARK    9  A    between atoms: _19  and  _22
REMARK   10  A    between atoms: _22  and  _23
REMARK   11  A    between atoms: _26  and  _28
REMARK   12  A    between atoms: _28  and  _29
REMARK   13  A    between atoms: _31  and  _33
REMARK   14  A    between atoms: _33  and  _34
REMARK   15  A    between atoms: _33  and  _36
REMARK   16  A    between atoms: _36  and  _37
REMARK   17  A    between atoms: _37  and  _38
REMARK   18  A    between atoms: _38  and  _39
REMARK   19  A    between atoms: _48  and  _50
REMARK   20  A    between atoms: _50  and  _51
REMARK   21  A    between atoms: _53  and  _55
REMARK   22  A    between atoms: _55  and  _56
REMARK   23  A    between atoms: _55  and  _58
REMARK   24  A    between atoms: _58  and  _59
REMARK   25  A    between atoms: _64  and  _66
REMARK   26  A    between atoms: _66  and  _67
REMARK   27  A    between atoms: _66  and  _69
REMARK   28  A    between atoms: _69  and  _70
REMARK   29  A    between atoms: _76  and  _78
REMARK   30  A    between atoms: _78  and  _79
REMARK   31  A    between atoms: _81  and  _83
REMARK   32  A    between atoms: _83  and  _84
REMARK   33  A    between atoms: _83  and  _86
REMARK   34  A    between atoms: _88  and  _90
REMARK   35  A    between atoms: _90  and  _91
REMARK   36  A    between atoms: _90  and  _93
REMARK   37  A    between atoms: _96  and  _98
REMARK   38  A    between atoms: _98  and  _99
REMARK   39  A    between atoms: _98  and  _101
REMARK   40  A    between atoms: _101  and  _102
REMARK   41  A    between atoms: _107  and  _108
REMARK   42  A    between atoms: _110  and  _112
REMARK   43  A    between atoms: _112  and  _113
REMARK   44  A    between atoms: _112  and  _115
REMARK   45  A    between atoms: _115  and  _116
REMARK   46  A    between atoms: _121  and  _123
REMARK   47  A    between atoms: _123  and  _124
REMARK   48  A    between atoms: _123  and  _126
REMARK   49  A    between atoms: _126  and  _127
REMARK   50  A    between atoms: _132  and  _134
REMARK   51  A    between atoms: _134  and  _135
REMARK   52  A    between atoms: _134  and  _137
REMARK   53  A    between atoms: _139  and  _141
REMARK   54  A    between atoms: _141  and  _142
REMARK   55  A    between atoms: _145  and  _147
REMARK   56  A    between atoms: _147  and  _148
REMARK   57  A    between atoms: _147  and  _150
REMARK   58  A    between atoms: _153  and  _155
REMARK   59  A    between atoms: _155  and  _156
REMARK   60  A    between atoms: _155  and  _158
REMARK   61  A    between atoms: _158  and  _159
REMARK   62  A    between atoms: _159  and  _160
REMARK   63  A    between atoms: _160  and  _161
REMARK   64  A    between atoms: _161  and  _162
REMARK   65  A    between atoms: _166  and  _168
REMARK   66  A    between atoms: _168  and  _169
REMARK   67  A    between atoms: _168  and  _171
REMARK   68  A    between atoms: _171  and  _172
REMARK   69  A    between atoms: _174  and  _176
REMARK   70  A    between atoms: _176  and  _177
REMARK   71  A    between atoms: _176  and  _179
REMARK   72  A    between atoms: _179  and  _180
REMARK   73  A    between atoms: _183  and  _185
REMARK   74  A    between atoms: _185  and  _186
REMARK   75  A    between atoms: _185  and  _188
REMARK   76  A    between atoms: _188  and  _189
REMARK   77  A    between atoms: _192  and  _194
REMARK   78  A    between atoms: _194  and  _195
REMARK   79  A    between atoms: _194  and  _197
REMARK   80  A    between atoms: _197  and  _198
REMARK   81  A    between atoms: _198  and  _199
REMARK   82  A    between atoms: _202  and  _204
REMARK   83  A    between atoms: _204  and  _205
REMARK   84  A    between atoms: _204  and  _207
REMARK   85  A    between atoms: _210  and  _212
REMARK   86  A    between atoms: _212  and  _213
REMARK   87  A    between atoms: _212  and  _215
REMARK   88  A    between atoms: _215  and  _216
REMARK   89  A    between atoms: _216  and  _217
REMARK   90  A    between atoms: _222  and  _224
REMARK   91  A    between atoms: _224  and  _225
REMARK   92  A    between atoms: _224  and  _227
REMARK   93  A    between atoms: _227  and  _228
REMARK   94  A    between atoms: _234  and  _236
REMARK   95  A    between atoms: _236  and  _237
REMARK   96  A    between atoms: _236  and  _239
REMARK   97  A    between atoms: _239  and  _240
REMARK   98  A    between atoms: _243  and  _245
REMARK   99  A    between atoms: _245  and  _246
REMARK  100  A    between atoms: _245  and  _248
REMARK  101  A    between atoms: _248  and  _249
REMARK  102  A    between atoms: _252  and  _254
REMARK  103  A    between atoms: _254  and  _255
REMARK  104  A    between atoms: _254  and  _257
REMARK  105  A    between atoms: _257  and  _258
REMARK  106  A    between atoms: _258  and  _259
REMARK  107  A    between atoms: _262  and  _264
REMARK  108  A    between atoms: _264  and  _265
REMARK  109  A    between atoms: _267  and  _269
REMARK  110  A    between atoms: _269  and  _270
REMARK  111  A    between atoms: _269  and  _272
REMARK  112  A    between atoms: _272  and  _273
REMARK  113  A    between atoms: _276  and  _278
REMARK  114  A    between atoms: _278  and  _279
REMARK  115  A    between atoms: _278  and  _281
REMARK  116  A    between atoms: _281  and  _282
REMARK  117  A    between atoms: _285  and  _287
REMARK  118  A    between atoms: _287  and  _288
REMARK  119  A    between atoms: _287  and  _290
REMARK  120  A    between atoms: _290  and  _291
REMARK  121  A    between atoms: _291  and  _292
REMARK  122  A    between atoms: _294  and  _296
REMARK  123  A    between atoms: _296  and  _297
REMARK  124  A    between atoms: _296  and  _299
REMARK  125  A    between atoms: _299  and  _300
REMARK  126  A    between atoms: _300  and  _301
REMARK  127  A    between atoms: _301  and  _302
REMARK  128  A    between atoms: _302  and  _303
REMARK  129  A    between atoms: _307  and  _309
REMARK  130  A    between atoms: _309  and  _310
REMARK  131  A    between atoms: _309  and  _312
REMARK  132  A    between atoms: _312  and  _313
REMARK  133  A    between atoms: _319  and  _321
REMARK  134  A    between atoms: _321  and  _322
REMARK  135  A    between atoms: _321  and  _324
REMARK  136  A    between atoms: _327  and  _329
REMARK  137  A    between atoms: _329  and  _330
REMARK  138  A    between atoms: _329  and  _332
REMARK  139  A    between atoms: _332  and  _333
REMARK  140  A    between atoms: _336  and  _338
REMARK  141  A    between atoms: _338  and  _339
REMARK  142  A    between atoms: _338  and  _341
REMARK  143  A    between atoms: _341  and  _342
REMARK  144  A    between atoms: _344  and  _346
REMARK  145  A    between atoms: _346  and  _347
REMARK  146  A    between atoms: _346  and  _349
REMARK  147  A    between atoms: _349  and  _350
REMARK  148  A    between atoms: _353  and  _355
REMARK  149  A    between atoms: _355  and  _356
REMARK  150  A    between atoms: _358  and  _360
REMARK  151  A    between atoms: _360  and  _361
REMARK  152  A    between atoms: _360  and  _363
REMARK  153  A    between atoms: _363  and  _364
REMARK  154  A    between atoms: _367  and  _369
REMARK  155  A    between atoms: _369  and  _370
REMARK  156  A    between atoms: _369  and  _372
REMARK  157  A    between atoms: _375  and  _376
REMARK  158  A    between atoms: _381  and  _383
REMARK  159  A    between atoms: _383  and  _384
REMARK  160  A    between atoms: _383  and  _386
REMARK  161  A    between atoms: _386  and  _387
REMARK  162  A    between atoms: _390  and  _392
REMARK  163  A    between atoms: _392  and  _393
REMARK  164  A    between atoms: _392  and  _395
REMARK  165  A    between atoms: _398  and  _400
REMARK  166  A    between atoms: _400  and  _401
REMARK  167  A    between atoms: _400  and  _403
REMARK  168  A    between atoms: _406  and  _408
REMARK  169  A    between atoms: _408  and  _409
REMARK  170  A    between atoms: _408  and  _411
REMARK  171  A    between atoms: _411  and  _412
REMARK  172  A    between atoms: _416  and  _417
REMARK  173  A    between atoms: _422  and  _424
REMARK  174  A    between atoms: _424  and  _425
REMARK  175  A    between atoms: _424  and  _427
REMARK  176  A    between atoms: _427  and  _428
REMARK  177  A    between atoms: _433  and  _434
REMARK  178  A    between atoms: _436  and  _438
REMARK  179  A    between atoms: _438  and  _439
REMARK  180  A    between atoms: _438  and  _441
REMARK  181  A    between atoms: _441  and  _442
REMARK  182  A    between atoms: _442  and  _443
REMARK  183  A    between atoms: _445  and  _447
REMARK  184  A    between atoms: _447  and  _448
REMARK  185  A    between atoms: _447  and  _450
REMARK  186  A    between atoms: _450  and  _451
REMARK  187  A    between atoms: _451  and  _452
REMARK  188  A    between atoms: _452  and  _453
REMARK  189  A    between atoms: _453  and  _454
REMARK  190  A    between atoms: _458  and  _460
REMARK  191  A    between atoms: _460  and  _461
REMARK  192  A    between atoms: _460  and  _463
REMARK  193  A    between atoms: _463  and  _464
REMARK  194  A    between atoms: _469  and  _471
REMARK  195  A    between atoms: _471  and  _472
REMARK  196  A    between atoms: _474  and  _476
REMARK  197  A    between atoms: _476  and  _477
REMARK  198  A    between atoms: _476  and  _479
REMARK  199  A    between atoms: _479  and  _480
REMARK  200  A    between atoms: _483  and  _485
REMARK  201  A    between atoms: _485  and  _486
REMARK  202  A    between atoms: _485  and  _488
REMARK  203  A    between atoms: _488  and  _489
REMARK  204  A    between atoms: _494  and  _496
REMARK  205  A    between atoms: _496  and  _497
REMARK  206  A    between atoms: _496  and  _499
REMARK  207  A    between atoms: _499  and  _500
REMARK  208  A    between atoms: _503  and  _505
REMARK  209  A    between atoms: _505  and  _506
REMARK  210  A    between atoms: _505  and  _508
REMARK  211  A    between atoms: _508  and  _509
REMARK  212  A    between atoms: _515  and  _517
REMARK  213  A    between atoms: _517  and  _518
REMARK  214  A    between atoms: _517  and  _520
REMARK  215  A    between atoms: _523  and  _525
REMARK  216  A    between atoms: _525  and  _526
REMARK  217  A    between atoms: _525  and  _528
REMARK  218  A    between atoms: _528  and  _529
REMARK  219  A    between atoms: _534  and  _536
REMARK  220  A    between atoms: _536  and  _537
REMARK  221  A    between atoms: _536  and  _539
REMARK  222  A    between atoms: _539  and  _540
REMARK  223  A    between atoms: _540  and  _541
REMARK  224  A    between atoms: _541  and  _542
REMARK  225  A    between atoms: _551  and  _553
REMARK  226  A    between atoms: _553  and  _554
REMARK  227  A    between atoms: _553  and  _556
REMARK  228  A    between atoms: _556  and  _557
REMARK  229  A    between atoms: _562  and  _564
REMARK  230  A    between atoms: _564  and  _565
REMARK  231  A    between atoms: _564  and  _567
REMARK  232  A    between atoms: _569  and  _571
REMARK  233  A    between atoms: _571  and  _572
REMARK  234  A    between atoms: _571  and  _574
REMARK  235  A    between atoms: _574  and  _575
REMARK  236  A    between atoms: _575  and  _576
REMARK  237  A    between atoms: _578  and  _580
REMARK  238  A    between atoms: _580  and  _581
REMARK  239  A    between atoms: _580  and  _583
REMARK  240  A    between atoms: _583  and  _584
REMARK  241  A    between atoms: _587  and  _589
REMARK  242  A    between atoms: _589  and  _590
REMARK  243  A    between atoms: _589  and  _592
REMARK  244  A    between atoms: _592  and  _593
REMARK  245  A    between atoms: _593  and  _594
REMARK  246  A    between atoms: _594  and  _595
REMARK  247  A    between atoms: _595  and  _596
REMARK  248  A    between atoms: _600  and  _602
REMARK  249  A    between atoms: _602  and  _603
REMARK  250  A    between atoms: _602  and  _605
REMARK  251  A    between atoms: _608  and  _610
REMARK  252  A    between atoms: _610  and  _611
REMARK  253  A    between atoms: _614  and  _616
REMARK  254  A    between atoms: _616  and  _617
REMARK  255  A    between atoms: _616  and  _619
REMARK  256  A    between atoms: _619  and  _620
REMARK  257  A    between atoms: _623  and  _625
REMARK  258  A    between atoms: _625  and  _626
REMARK  259  A    between atoms: _625  and  _628
REMARK  260  A    between atoms: _628  and  _629
REMARK  261  A    between atoms: _635  and  _637
REMARK  262  A    between atoms: _637  and  _638
REMARK                            x       y       z     vdW  Elec       q    Type
REMARK                         _______ _______ _______ _____ _____    ______ ____
ROOT
ATOM      1  O   HOH     1      26.182   0.530   2.299  0.00  0.00    +0.000 OA
ENDROOT
TORSDOF 0
REMARK  Name = ../refined-set-2016/3u6i/3u6i_pocket.pdb
REMARK  262 active torsions:
REMARK  status: ('A' for Active; 'I' for Inactive)
REMARK    1  A    between atoms: _1  and  _3
REMARK    2  A    between atoms: _3  and  _4
REMARK    3  A    between atoms: _3  and  _6
REMARK    4  A    between atoms: _9  and  _11
REMARK    5  A    between atoms: _11  and  _12
REMARK    6  A    between atoms: _11  and  _14
REMARK    7  A    between atoms: _17  and  _19
REMARK    8  A    between atoms: _19  and  _20
REMARK    9  A    between atoms: _19  and  _22
REMARK   10  A    between atoms: _22  and  _23
REMARK   11  A    between atoms: _26  and  _28
REMARK   12  A    between atoms: _28  and  _29
REMARK   13  A    between atoms: _31  and  _33
REMARK   14  A    between atoms: _33  and  _34
REMARK   15  A    between atoms: _33  and  _36
REMARK   16  A    between atoms: _36  and  _37
REMARK   17  A    between atoms: _37  and  _38
REMARK   18  A    between atoms: _38  and  _39
REMARK   19  A    between atoms: _48  and  _50
REMARK   20  A    between atoms: _50  and  _51
REMARK   21  A    between atoms: _53  and  _55
REMARK   22  A    between atoms: _55  and  _56
REMARK   23  A    between atoms: _55  and  _58
REMARK   24  A    between atoms: _58  and  _59
REMARK   25  A    between atoms: _64  and  _66
REMARK   26  A    between atoms: _66  and  _67
REMARK   27  A    between atoms: _66  and  _69
REMARK   28  A    between atoms: _69  and  _70
REMARK   29  A    between atoms: _76  and  _78
REMARK   30  A    between atoms: _78  and  _79
REMARK   31  A    between atoms: _81  and  _83
REMARK   32  A    between atoms: _83  and  _84
REMARK   33  A    between atoms: _83  and  _86
REMARK   34  A    between atoms: _88  and  _90
REMARK   35  A    between atoms: _90  and  _91
REMARK   36  A    between atoms: _90  and  _93
REMARK   37  A    between atoms: _96  and  _98
REMARK   38  A    between atoms: _98  and  _99
REMARK   39  A    between atoms: _98  and  _101
REMARK   40  A    between atoms: _101  and  _102
REMARK   41  A    between atoms: _107  and  _108
REMARK   42  A    between atoms: _110  and  _112
REMARK   43  A    between atoms: _112  and  _113
REMARK   44  A    between atoms: _112  and  _115
REMARK   45  A    between atoms: _115  and  _116
REMARK   46  A    between atoms: _121  and  _123
REMARK   47  A    between atoms: _123  and  _124
REMARK   48  A    between atoms: _123  and  _126
REMARK   49  A    between atoms: _126  and  _127
REMARK   50  A    between atoms: _132  and  _134
REMARK   51  A    between atoms: _134  and  _135
REMARK   52  A    between atoms: _134  and  _137
REMARK   53  A    between atoms: _139  and  _141
REMARK   54  A    between atoms: _141  and  _142
REMARK   55  A    between atoms: _145  and  _147
REMARK   56  A    between atoms: _147  and  _148
REMARK   57  A    between atoms: _147  and  _150
REMARK   58  A    between atoms: _153  and  _155
REMARK   59  A    between atoms: _155  and  _156
REMARK   60  A    between atoms: _155  and  _158
REMARK   61  A    between atoms: _158  and  _159
REMARK   62  A    between atoms: _159  and  _160
REMARK   63  A    between atoms: _160  and  _161
REMARK   64  A    between atoms: _161  and  _162
REMARK   65  A    between atoms: _166  and  _168
REMARK   66  A    between atoms: _168  and  _169
REMARK   67  A    between atoms: _168  and  _171
REMARK   68  A    between atoms: _171  and  _172
REMARK   69  A    between atoms: _174  and  _176
REMARK   70  A    between atoms: _176  and  _177
REMARK   71  A    between atoms: _176  and  _179
REMARK   72  A    between atoms: _179  and  _180
REMARK   73  A    between atoms: _183  and  _185
REMARK   74  A    between atoms: _185  and  _186
REMARK   75  A    between atoms: _185  and  _188
REMARK   76  A    between atoms: _188  and  _189
REMARK   77  A    between atoms: _192  and  _194
REMARK   78  A    between atoms: _194  and  _195
REMARK   79  A    between atoms: _194  and  _197
REMARK   80  A    between atoms: _197  and  _198
REMARK   81  A    between atoms: _198  and  _199
REMARK   82  A    between atoms: _202  and  _204
REMARK   83  A    between atoms: _204  and  _205
REMARK   84  A    between atoms: _204  and  _207
REMARK   85  A    between atoms: _210  and  _212
REMARK   86  A    between atoms: _212  and  _213
REMARK   87  A    between atoms: _212  and  _215
REMARK   88  A    between atoms: _215  and  _216
REMARK   89  A    between atoms: _216  and  _217
REMARK   90  A    between atoms: _222  and  _224
REMARK   91  A    between atoms: _224  and  _225
REMARK   92  A    between atoms: _224  and  _227
REMARK   93  A    between atoms: _227  and  _228
REMARK   94  A    between atoms: _234  and  _236
REMARK   95  A    between atoms: _236  and  _237
REMARK   96  A    between atoms: _236  and  _239
REMARK   97  A    between atoms: _239  and  _240
REMARK   98  A    between atoms: _243  and  _245
REMARK   99  A    between atoms: _245  and  _246
REMARK  100  A    between atoms: _245  and  _248
REMARK  101  A    between atoms: _248  and  _249
REMARK  102  A    between atoms: _252  and  _254
REMARK  103  A    between atoms: _254  and  _255
REMARK  104  A    between atoms: _254  and  _257
REMARK  105  A    between atoms: _257  and  _258
REMARK  106  A    between atoms: _258  and  _259
REMARK  107  A    between atoms: _262  and  _264
REMARK  108  A    between atoms: _264  and  _265
REMARK  109  A    between atoms: _267  and  _269
REMARK  110  A    between atoms: _269  and  _270
REMARK  111  A    between atoms: _269  and  _272
REMARK  112  A    between atoms: _272  and  _273
REMARK  113  A    between atoms: _276  and  _278
REMARK  114  A    between atoms: _278  and  _279
REMARK  115  A    between atoms: _278  and  _281
REMARK  116  A    between atoms: _281  and  _282
REMARK  117  A    between atoms: _285  and  _287
REMARK  118  A    between atoms: _287  and  _288
REMARK  119  A    between atoms: _287  and  _290
REMARK  120  A    between atoms: _290  and  _291
REMARK  121  A    between atoms: _291  and  _292
REMARK  122  A    between atoms: _294  and  _296
REMARK  123  A    between atoms: _296  and  _297
REMARK  124  A    between atoms: _296  and  _299
REMARK  125  A    between atoms: _299  and  _300
REMARK  126  A    between atoms: _300  and  _301
REMARK  127  A    between atoms: _301  and  _302
REMARK  128  A    between atoms: _302  and  _303
REMARK  129  A    between atoms: _307  and  _309
REMARK  130  A    between atoms: _309  and  _310
REMARK  131  A    between atoms: _309  and  _312
REMARK  132  A    between atoms: _312  and  _313
REMARK  133  A    between atoms: _319  and  _321
REMARK  134  A    between atoms: _321  and  _322
REMARK  135  A    between atoms: _321  and  _324
REMARK  136  A    between atoms: _327  and  _329
REMARK  137  A    between atoms: _329  and  _330
REMARK  138  A    between atoms: _329  and  _332
REMARK  139  A    between atoms: _332  and  _333
REMARK  140  A    between atoms: _336  and  _338
REMARK  141  A    between atoms: _338  and  _339
REMARK  142  A    between atoms: _338  and  _341
REMARK  143  A    between atoms: _341  and  _342
REMARK  144  A    between atoms: _344  and  _346
REMARK  145  A    between atoms: _346  and  _347
REMARK  146  A    between atoms: _346  and  _349
REMARK  147  A    between atoms: _349  and  _350
REMARK  148  A    between atoms: _353  and  _355
REMARK  149  A    between atoms: _355  and  _356
REMARK  150  A    between atoms: _358  and  _360
REMARK  151  A    between atoms: _360  and  _361
REMARK  152  A    between atoms: _360  and  _363
REMARK  153  A    between atoms: _363  and  _364
REMARK  154  A    between atoms: _367  and  _369
REMARK  155  A    between atoms: _369  and  _370
REMARK  156  A    between atoms: _369  and  _372
REMARK  157  A    between atoms: _375  and  _376
REMARK  158  A    between atoms: _381  and  _383
REMARK  159  A    between atoms: _383  and  _384
REMARK  160  A    between atoms: _383  and  _386
REMARK  161  A    between atoms: _386  and  _387
REMARK  162  A    between atoms: _390  and  _392
REMARK  163  A    between atoms: _392  and  _393
REMARK  164  A    between atoms: _392  and  _395
REMARK  165  A    between atoms: _398  and  _400
REMARK  166  A    between atoms: _400  and  _401
REMARK  167  A    between atoms: _400  and  _403
REMARK  168  A    between atoms: _406  and  _408
REMARK  169  A    between atoms: _408  and  _409
REMARK  170  A    between atoms: _408  and  _411
REMARK  171  A    between atoms: _411  and  _412
REMARK  172  A    between atoms: _416  and  _417
REMARK  173  A    between atoms: _422  and  _424
REMARK  174  A    between atoms: _424  and  _425
REMARK  175  A    between atoms: _424  and  _427
REMARK  176  A    between atoms: _427  and  _428
REMARK  177  A    between atoms: _433  and  _434
REMARK  178  A    between atoms: _436  and  _438
REMARK  179  A    between atoms: _438  and  _439
REMARK  180  A    between atoms: _438  and  _441
REMARK  181  A    between atoms: _441  and  _442
REMARK  182  A    between atoms: _442  and  _443
REMARK  183  A    between atoms: _445  and  _447
REMARK  184  A    between atoms: _447  and  _448
REMARK  185  A    between atoms: _447  and  _450
REMARK  186  A    between atoms: _450  and  _451
REMARK  187  A    between atoms: _451  and  _452
REMARK  188  A    between atoms: _452  and  _453
REMARK  189  A    between atoms: _453  and  _454
REMARK  190  A    between atoms: _458  and  _460
REMARK  191  A    between atoms: _460  and  _461
REMARK  192  A    between atoms: _460  and  _463
REMARK  193  A    between atoms: _463  and  _464
REMARK  194  A    between atoms: _469  and  _471
REMARK  195  A    between atoms: _471  and  _472
REMARK  196  A    between atoms: _474  and  _476
REMARK  197  A    between atoms: _476  and  _477
REMARK  198  A    between atoms: _476  and  _479
REMARK  199  A    between atoms: _479  and  _480
REMARK  200  A    between atoms: _483  and  _485
REMARK  201  A    between atoms: _485  and  _486
REMARK  202  A    between atoms: _485  and  _488
REMARK  203  A    between atoms: _488  and  _489
REMARK  204  A    between atoms: _494  and  _496
REMARK  205  A    between atoms: _496  and  _497
REMARK  206  A    between atoms: _496  and  _499
REMARK  207  A    between atoms: _499  and  _500
REMARK  208  A    between atoms: _503  and  _505
REMARK  209  A    between atoms: _505  and  _506
REMARK  210  A    between atoms: _505  and  _508
REMARK  211  A    between atoms: _508  and  _509
REMARK  212  A    between atoms: _515  and  _517
REMARK  213  A    between atoms: _517  and  _518
REMARK  214  A    between atoms: _517  and  _520
REMARK  215  A    between atoms: _523  and  _525
REMARK  216  A    between atoms: _525  and  _526
REMARK  217  A    between atoms: _525  and  _528
REMARK  218  A    between atoms: _528  and  _529
REMARK  219  A    between atoms: _534  and  _536
REMARK  220  A    between atoms: _536  and  _537
REMARK  221  A    between atoms: _536  and  _539
REMARK  222  A    between atoms: _539  and  _540
REMARK  223  A    between atoms: _540  and  _541
REMARK  224  A    between atoms: _541  and  _542
REMARK  225  A    between atoms: _551  and  _553
REMARK  226  A    between atoms: _553  and  _554
REMARK  227  A    between atoms: _553  and  _556
REMARK  228  A    between atoms: _556  and  _557
REMARK  229  A    between atoms: _562  and  _564
REMARK  230  A    between atoms: _564  and  _565
REMARK  231  A    between atoms: _564  and  _567
REMARK  232  A    between atoms: _569  and  _571
REMARK  233  A    between atoms: _571  and  _572
REMARK  234  A    between atoms: _571  and  _574
REMARK  235  A    between atoms: _574  and  _575
REMARK  236  A    between atoms: _575  and  _576
REMARK  237  A    between atoms: _578  and  _580
REMARK  238  A    between atoms: _580  and  _581
REMARK  239  A    between atoms: _580  and  _583
REMARK  240  A    between atoms: _583  and  _584
REMARK  241  A    between atoms: _587  and  _589
REMARK  242  A    between atoms: _589  and  _590
REMARK  243  A    between atoms: _589  and  _592
REMARK  244  A    between atoms: _592  and  _593
REMARK  245  A    between atoms: _593  and  _594
REMARK  246  A    between atoms: _594  and  _595
REMARK  247  A    between atoms: _595  and  _596
REMARK  248  A    between atoms: _600  and  _602
REMARK  249  A    between atoms: _602  and  _603
REMARK  250  A    between atoms: _602  and  _605
REMARK  251  A    between atoms: _608  and  _610
REMARK  252  A    between atoms: _610  and  _611
REMARK  253  A    between atoms: _614  and  _616
REMARK  254  A    between atoms: _616  and  _617
REMARK  255  A    between atoms: _616  and  _619
REMARK  256  A    between atoms: _619  and  _620
REMARK  257  A    between atoms: _623  and  _625
REMARK  258  A    between atoms: _625  and  _626
REMARK  259  A    between atoms: _625  and  _628
REMARK  260  A    between atoms: _628  and  _629
REMARK  261  A    between atoms: _635  and  _637
REMARK  262  A    between atoms: _637  and  _638
REMARK                            x       y       z     vdW  Elec       q    Type
REMARK                         _______ _______ _______ _____ _____    ______ ____
ROOT
ATOM      1  O   HOH     1      19.529 -10.708  12.659  0.00  0.00    +0.000 OA
ENDROOT
TORSDOF 0
REMARK  Name = ../refined-set-2016/3u6i/3u6i_pocket.pdb
REMARK  262 active torsions:
REMARK  status: ('A' for Active; 'I' for Inactive)
REMARK    1  A    between atoms: _1  and  _3
REMARK    2  A    between atoms: _3  and  _4
REMARK    3  A    between atoms: _3  and  _6
REMARK    4  A    between atoms: _9  and  _11
REMARK    5  A    between atoms: _11  and  _12
REMARK    6  A    between atoms: _11  and  _14
REMARK    7  A    between atoms: _17  and  _19
REMARK    8  A    between atoms: _19  and  _20
REMARK    9  A    between atoms: _19  and  _22
REMARK   10  A    between atoms: _22  and  _23
REMARK   11  A    between atoms: _26  and  _28
REMARK   12  A    between atoms: _28  and  _29
REMARK   13  A    between atoms: _31  and  _33
REMARK   14  A    between atoms: _33  and  _34
REMARK   15  A    between atoms: _33  and  _36
REMARK   16  A    between atoms: _36  and  _37
REMARK   17  A    between atoms: _37  and  _38
REMARK   18  A    between atoms: _38  and  _39
REMARK   19  A    between atoms: _48  and  _50
REMARK   20  A    between atoms: _50  and  _51
REMARK   21  A    between atoms: _53  and  _55
REMARK   22  A    between atoms: _55  and  _56
REMARK   23  A    between atoms: _55  and  _58
REMARK   24  A    between atoms: _58  and  _59
REMARK   25  A    between atoms: _64  and  _66
REMARK   26  A    between atoms: _66  and  _67
REMARK   27  A    between atoms: _66  and  _69
REMARK   28  A    between atoms: _69  and  _70
REMARK   29  A    between atoms: _76  and  _78
REMARK   30  A    between atoms: _78  and  _79
REMARK   31  A    between atoms: _81  and  _83
REMARK   32  A    between atoms: _83  and  _84
REMARK   33  A    between atoms: _83  and  _86
REMARK   34  A    between atoms: _88  and  _90
REMARK   35  A    between atoms: _90  and  _91
REMARK   36  A    between atoms: _90  and  _93
REMARK   37  A    between atoms: _96  and  _98
REMARK   38  A    between atoms: _98  and  _99
REMARK   39  A    between atoms: _98  and  _101
REMARK   40  A    between atoms: _101  and  _102
REMARK   41  A    between atoms: _107  and  _108
REMARK   42  A    between atoms: _110  and  _112
REMARK   43  A    between atoms: _112  and  _113
REMARK   44  A    between atoms: _112  and  _115
REMARK   45  A    between atoms: _115  and  _116
REMARK   46  A    between atoms: _121  and  _123
REMARK   47  A    between atoms: _123  and  _124
REMARK   48  A    between atoms: _123  and  _126
REMARK   49  A    between atoms: _126  and  _127
REMARK   50  A    between atoms: _132  and  _134
REMARK   51  A    between atoms: _134  and  _135
REMARK   52  A    between atoms: _134  and  _137
REMARK   53  A    between atoms: _139  and  _141
REMARK   54  A    between atoms: _141  and  _142
REMARK   55  A    between atoms: _145  and  _147
REMARK   56  A    between atoms: _147  and  _148
REMARK   57  A    between atoms: _147  and  _150
REMARK   58  A    between atoms: _153  and  _155
REMARK   59  A    between atoms: _155  and  _156
REMARK   60  A    between atoms: _155  and  _158
REMARK   61  A    between atoms: _158  and  _159
REMARK   62  A    between atoms: _159  and  _160
REMARK   63  A    between atoms: _160  and  _161
REMARK   64  A    between atoms: _161  and  _162
REMARK   65  A    between atoms: _166  and  _168
REMARK   66  A    between atoms: _168  and  _169
REMARK   67  A    between atoms: _168  and  _171
REMARK   68  A    between atoms: _171  and  _172
REMARK   69  A    between atoms: _174  and  _176
REMARK   70  A    between atoms: _176  and  _177
REMARK   71  A    between atoms: _176  and  _179
REMARK   72  A    between atoms: _179  and  _180
REMARK   73  A    between atoms: _183  and  _185
REMARK   74  A    between atoms: _185  and  _186
REMARK   75  A    between atoms: _185  and  _188
REMARK   76  A    between atoms: _188  and  _189
REMARK   77  A    between atoms: _192  and  _194
REMARK   78  A    between atoms: _194  and  _195
REMARK   79  A    between atoms: _194  and  _197
REMARK   80  A    between atoms: _197  and  _198
REMARK   81  A    between atoms: _198  and  _199
REMARK   82  A    between atoms: _202  and  _204
REMARK   83  A    between atoms: _204  and  _205
REMARK   84  A    between atoms: _204  and  _207
REMARK   85  A    between atoms: _210  and  _212
REMARK   86  A    between atoms: _212  and  _213
REMARK   87  A    between atoms: _212  and  _215
REMARK   88  A    between atoms: _215  and  _216
REMARK   89  A    between atoms: _216  and  _217
REMARK   90  A    between atoms: _222  and  _224
REMARK   91  A    between atoms: _224  and  _225
REMARK   92  A    between atoms: _224  and  _227
REMARK   93  A    between atoms: _227  and  _228
REMARK   94  A    between atoms: _234  and  _236
REMARK   95  A    between atoms: _236  and  _237
REMARK   96  A    between atoms: _236  and  _239
REMARK   97  A    between atoms: _239  and  _240
REMARK   98  A    between atoms: _243  and  _245
REMARK   99  A    between atoms: _245  and  _246
REMARK  100  A    between atoms: _245  and  _248
REMARK  101  A    between atoms: _248  and  _249
REMARK  102  A    between atoms: _252  and  _254
REMARK  103  A    between atoms: _254  and  _255
REMARK  104  A    between atoms: _254  and  _257
REMARK  105  A    between atoms: _257  and  _258
REMARK  106  A    between atoms: _258  and  _259
REMARK  107  A    between atoms: _262  and  _264
REMARK  108  A    between atoms: _264  and  _265
REMARK  109  A    between atoms: _267  and  _269
REMARK  110  A    between atoms: _269  and  _270
REMARK  111  A    between atoms: _269  and  _272
REMARK  112  A    between atoms: _272  and  _273
REMARK  113  A    between atoms: _276  and  _278
REMARK  114  A    between atoms: _278  and  _279
REMARK  115  A    between atoms: _278  and  _281
REMARK  116  A    between atoms: _281  and  _282
REMARK  117  A    between atoms: _285  and  _287
REMARK  118  A    between atoms: _287  and  _288
REMARK  119  A    between atoms: _287  and  _290
REMARK  120  A    between atoms: _290  and  _291
REMARK  121  A    between atoms: _291  and  _292
REMARK  122  A    between atoms: _294  and  _296
REMARK  123  A    between atoms: _296  and  _297
REMARK  124  A    between atoms: _296  and  _299
REMARK  125  A    between atoms: _299  and  _300
REMARK  126  A    between atoms: _300  and  _301
REMARK  127  A    between atoms: _301  and  _302
REMARK  128  A    between atoms: _302  and  _303
REMARK  129  A    between atoms: _307  and  _309
REMARK  130  A    between atoms: _309  and  _310
REMARK  131  A    between atoms: _309  and  _312
REMARK  132  A    between atoms: _312  and  _313
REMARK  133  A    between atoms: _319  and  _321
REMARK  134  A    between atoms: _321  and  _322
REMARK  135  A    between atoms: _321  and  _324
REMARK  136  A    between atoms: _327  and  _329
REMARK  137  A    between atoms: _329  and  _330
REMARK  138  A    between atoms: _329  and  _332
REMARK  139  A    between atoms: _332  and  _333
REMARK  140  A    between atoms: _336  and  _338
REMARK  141  A    between atoms: _338  and  _339
REMARK  142  A    between atoms: _338  and  _341
REMARK  143  A    between atoms: _341  and  _342
REMARK  144  A    between atoms: _344  and  _346
REMARK  145  A    between atoms: _346  and  _347
REMARK  146  A    between atoms: _346  and  _349
REMARK  147  A    between atoms: _349  and  _350
REMARK  148  A    between atoms: _353  and  _355
REMARK  149  A    between atoms: _355  and  _356
REMARK  150  A    between atoms: _358  and  _360
REMARK  151  A    between atoms: _360  and  _361
REMARK  152  A    between atoms: _360  and  _363
REMARK  153  A    between atoms: _363  and  _364
REMARK  154  A    between atoms: _367  and  _369
REMARK  155  A    between atoms: _369  and  _370
REMARK  156  A    between atoms: _369  and  _372
REMARK  157  A    between atoms: _375  and  _376
REMARK  158  A    between atoms: _381  and  _383
REMARK  159  A    between atoms: _383  and  _384
REMARK  160  A    between atoms: _383  and  _386
REMARK  161  A    between atoms: _386  and  _387
REMARK  162  A    between atoms: _390  and  _392
REMARK  163  A    between atoms: _392  and  _393
REMARK  164  A    between atoms: _392  and  _395
REMARK  165  A    between atoms: _398  and  _400
REMARK  166  A    between atoms: _400  and  _401
REMARK  167  A    between atoms: _400  and  _403
REMARK  168  A    between atoms: _406  and  _408
REMARK  169  A    between atoms: _408  and  _409
REMARK  170  A    between atoms: _408  and  _411
REMARK  171  A    between atoms: _411  and  _412
REMARK  172  A    between atoms: _416  and  _417
REMARK  173  A    between atoms: _422  and  _424
REMARK  174  A    between atoms: _424  and  _425
REMARK  175  A    between atoms: _424  and  _427
REMARK  176  A    between atoms: _427  and  _428
REMARK  177  A    between atoms: _433  and  _434
REMARK  178  A    between atoms: _436  and  _438
REMARK  179  A    between atoms: _438  and  _439
REMARK  180  A    between atoms: _438  and  _441
REMARK  181  A    between atoms: _441  and  _442
REMARK  182  A    between atoms: _442  and  _443
REMARK  183  A    between atoms: _445  and  _447
REMARK  184  A    between atoms: _447  and  _448
REMARK  185  A    between atoms: _447  and  _450
REMARK  186  A    between atoms: _450  and  _451
REMARK  187  A    between atoms: _451  and  _452
REMARK  188  A    between atoms: _452  and  _453
REMARK  189  A    between atoms: _453  and  _454
REMARK  190  A    between atoms: _458  and  _460
REMARK  191  A    between atoms: _460  and  _461
REMARK  192  A    between atoms: _460  and  _463
REMARK  193  A    between atoms: _463  and  _464
REMARK  194  A    between atoms: _469  and  _471
REMARK  195  A    between atoms: _471  and  _472
REMARK  196  A    between atoms: _474  and  _476
REMARK  197  A    between atoms: _476  and  _477
REMARK  198  A    between atoms: _476  and  _479
REMARK  199  A    between atoms: _479  and  _480
REMARK  200  A    between atoms: _483  and  _485
REMARK  201  A    between atoms: _485  and  _486
REMARK  202  A    between atoms: _485  and  _488
REMARK  203  A    between atoms: _488  and  _489
REMARK  204  A    between atoms: _494  and  _496
REMARK  205  A    between atoms: _496  and  _497
REMARK  206  A    between atoms: _496  and  _499
REMARK  207  A    between atoms: _499  and  _500
REMARK  208  A    between atoms: _503  and  _505
REMARK  209  A    between atoms: _505  and  _506
REMARK  210  A    between atoms: _505  and  _508
REMARK  211  A    between atoms: _508  and  _509
REMARK  212  A    between atoms: _515  and  _517
REMARK  213  A    between atoms: _517  and  _518
REMARK  214  A    between atoms: _517  and  _520
REMARK  215  A    between atoms: _523  and  _525
REMARK  216  A    between atoms: _525  and  _526
REMARK  217  A    between atoms: _525  and  _528
REMARK  218  A    between atoms: _528  and  _529
REMARK  219  A    between atoms: _534  and  _536
REMARK  220  A    between atoms: _536  and  _537
REMARK  221  A    between atoms: _536  and  _539
REMARK  222  A    between atoms: _539  and  _540
REMARK  223  A    between atoms: _540  and  _541
REMARK  224  A    between atoms: _541  and  _542
REMARK  225  A    between atoms: _551  and  _553
REMARK  226  A    between atoms: _553  and  _554
REMARK  227  A    between atoms: _553  and  _556
REMARK  228  A    between atoms: _556  and  _557
REMARK  229  A    between atoms: _562  and  _564
REMARK  230  A    between atoms: _564  and  _565
REMARK  231  A    between atoms: _564  and  _567
REMARK  232  A    between atoms: _569  and  _571
REMARK  233  A    between atoms: _571  and  _572
REMARK  234  A    between atoms: _571  and  _574
REMARK  235  A    between atoms: _574  and  _575
REMARK  236  A    between atoms: _575  and  _576
REMARK  237  A    between atoms: _578  and  _580
REMARK  238  A    between atoms: _580  and  _581
REMARK  239  A    between atoms: _580  and  _583
REMARK  240  A    between atoms: _583  and  _584
REMARK  241  A    between atoms: _587  and  _589
REMARK  242  A    between atoms: _589  and  _590
REMARK  243  A    between atoms: _589  and  _592
REMARK  244  A    between atoms: _592  and  _593
REMARK  245  A    between atoms: _593  and  _594
REMARK  246  A    between atoms: _594  and  _595
REMARK  247  A    between atoms: _595  and  _596
REMARK  248  A    between atoms: _600  and  _602
REMARK  249  A    between atoms: _602  and  _603
REMARK  250  A    between atoms: _602  and  _605
REMARK  251  A    between atoms: _608  and  _610
REMARK  252  A    between atoms: _610  and  _611
REMARK  253  A    between atoms: _614  and  _616
REMARK  254  A    between atoms: _616  and  _617
REMARK  255  A    between atoms: _616  and  _619
REMARK  256  A    between atoms: _619  and  _620
REMARK  257  A    between atoms: _623  and  _625
REMARK  258  A    between atoms: _625  and  _626
REMARK  259  A    between atoms: _625  and  _628
REMARK  260  A    between atoms: _628  and  _629
REMARK  261  A    between atoms: _635  and  _637
REMARK  262  A    between atoms: _637  and  _638
REMARK                            x       y       z     vdW  Elec       q    Type
REMARK                         _______ _______ _______ _____ _____    ______ ____
ROOT
ATOM      1  O   HOH     1      14.735  -2.065  17.581  0.00  0.00    +0.000 OA
ENDROOT
TORSDOF 0
REMARK  Name = ../refined-set-2016/3u6i/3u6i_pocket.pdb
REMARK  262 active torsions:
REMARK  status: ('A' for Active; 'I' for Inactive)
REMARK    1  A    between atoms: _1  and  _3
REMARK    2  A    between atoms: _3  and  _4
REMARK    3  A    between atoms: _3  and  _6
REMARK    4  A    between atoms: _9  and  _11
REMARK    5  A    between atoms: _11  and  _12
REMARK    6  A    between atoms: _11  and  _14
REMARK    7  A    between atoms: _17  and  _19
REMARK    8  A    between atoms: _19  and  _20
REMARK    9  A    between atoms: _19  and  _22
REMARK   10  A    between atoms: _22  and  _23
REMARK   11  A    between atoms: _26  and  _28
REMARK   12  A    between atoms: _28  and  _29
REMARK   13  A    between atoms: _31  and  _33
REMARK   14  A    between atoms: _33  and  _34
REMARK   15  A    between atoms: _33  and  _36
REMARK   16  A    between atoms: _36  and  _37
REMARK   17  A    between atoms: _37  and  _38
REMARK   18  A    between atoms: _38  and  _39
REMARK   19  A    between atoms: _48  and  _50
REMARK   20  A    between atoms: _50  and  _51
REMARK   21  A    between atoms: _53  and  _55
REMARK   22  A    between atoms: _55  and  _56
REMARK   23  A    between atoms: _55  and  _58
REMARK   24  A    between atoms: _58  and  _59
REMARK   25  A    between atoms: _64  and  _66
REMARK   26  A    between atoms: _66  and  _67
REMARK   27  A    between atoms: _66  and  _69
REMARK   28  A    between atoms: _69  and  _70
REMARK   29  A    between atoms: _76  and  _78
REMARK   30  A    between atoms: _78  and  _79
REMARK   31  A    between atoms: _81  and  _83
REMARK   32  A    between atoms: _83  and  _84
REMARK   33  A    between atoms: _83  and  _86
REMARK   34  A    between atoms: _88  and  _90
REMARK   35  A    between atoms: _90  and  _91
REMARK   36  A    between atoms: _90  and  _93
REMARK   37  A    between atoms: _96  and  _98
REMARK   38  A    between atoms: _98  and  _99
REMARK   39  A    between atoms: _98  and  _101
REMARK   40  A    between atoms: _101  and  _102
REMARK   41  A    between atoms: _107  and  _108
REMARK   42  A    between atoms: _110  and  _112
REMARK   43  A    between atoms: _112  and  _113
REMARK   44  A    between atoms: _112  and  _115
REMARK   45  A    between atoms: _115  and  _116
REMARK   46  A    between atoms: _121  and  _123
REMARK   47  A    between atoms: _123  and  _124
REMARK   48  A    between atoms: _123  and  _126
REMARK   49  A    between atoms: _126  and  _127
REMARK   50  A    between atoms: _132  and  _134
REMARK   51  A    between atoms: _134  and  _135
REMARK   52  A    between atoms: _134  and  _137
REMARK   53  A    between atoms: _139  and  _141
REMARK   54  A    between atoms: _141  and  _142
REMARK   55  A    between atoms: _145  and  _147
REMARK   56  A    between atoms: _147  and  _148
REMARK   57  A    between atoms: _147  and  _150
REMARK   58  A    between atoms: _153  and  _155
REMARK   59  A    between atoms: _155  and  _156
REMARK   60  A    between atoms: _155  and  _158
REMARK   61  A    between atoms: _158  and  _159
REMARK   62  A    between atoms: _159  and  _160
REMARK   63  A    between atoms: _160  and  _161
REMARK   64  A    between atoms: _161  and  _162
REMARK   65  A    between atoms: _166  and  _168
REMARK   66  A    between atoms: _168  and  _169
REMARK   67  A    between atoms: _168  and  _171
REMARK   68  A    between atoms: _171  and  _172
REMARK   69  A    between atoms: _174  and  _176
REMARK   70  A    between atoms: _176  and  _177
REMARK   71  A    between atoms: _176  and  _179
REMARK   72  A    between atoms: _179  and  _180
REMARK   73  A    between atoms: _183  and  _185
REMARK   74  A    between atoms: _185  and  _186
REMARK   75  A    between atoms: _185  and  _188
REMARK   76  A    between atoms: _188  and  _189
REMARK   77  A    between atoms: _192  and  _194
REMARK   78  A    between atoms: _194  and  _195
REMARK   79  A    between atoms: _194  and  _197
REMARK   80  A    between atoms: _197  and  _198
REMARK   81  A    between atoms: _198  and  _199
REMARK   82  A    between atoms: _202  and  _204
REMARK   83  A    between atoms: _204  and  _205
REMARK   84  A    between atoms: _204  and  _207
REMARK   85  A    between atoms: _210  and  _212
REMARK   86  A    between atoms: _212  and  _213
REMARK   87  A    between atoms: _212  and  _215
REMARK   88  A    between atoms: _215  and  _216
REMARK   89  A    between atoms: _216  and  _217
REMARK   90  A    between atoms: _222  and  _224
REMARK   91  A    between atoms: _224  and  _225
REMARK   92  A    between atoms: _224  and  _227
REMARK   93  A    between atoms: _227  and  _228
REMARK   94  A    between atoms: _234  and  _236
REMARK   95  A    between atoms: _236  and  _237
REMARK   96  A    between atoms: _236  and  _239
REMARK   97  A    between atoms: _239  and  _240
REMARK   98  A    between atoms: _243  and  _245
REMARK   99  A    between atoms: _245  and  _246
REMARK  100  A    between atoms: _245  and  _248
REMARK  101  A    between atoms: _248  and  _249
REMARK  102  A    between atoms: _252  and  _254
REMARK  103  A    between atoms: _254  and  _255
REMARK  104  A    between atoms: _254  and  _257
REMARK  105  A    between atoms: _257  and  _258
REMARK  106  A    between atoms: _258  and  _259
REMARK  107  A    between atoms: _262  and  _264
REMARK  108  A    between atoms: _264  and  _265
REMARK  109  A    between atoms: _267  and  _269
REMARK  110  A    between atoms: _269  and  _270
REMARK  111  A    between atoms: _269  and  _272
REMARK  112  A    between atoms: _272  and  _273
REMARK  113  A    between atoms: _276  and  _278
REMARK  114  A    between atoms: _278  and  _279
REMARK  115  A    between atoms: _278  and  _281
REMARK  116  A    between atoms: _281  and  _282
REMARK  117  A    between atoms: _285  and  _287
REMARK  118  A    between atoms: _287  and  _288
REMARK  119  A    between atoms: _287  and  _290
REMARK  120  A    between atoms: _290  and  _291
REMARK  121  A    between atoms: _291  and  _292
REMARK  122  A    between atoms: _294  and  _296
REMARK  123  A    between atoms: _296  and  _297
REMARK  124  A    between atoms: _296  and  _299
REMARK  125  A    between atoms: _299  and  _300
REMARK  126  A    between atoms: _300  and  _301
REMARK  127  A    between atoms: _301  and  _302
REMARK  128  A    between atoms: _302  and  _303
REMARK  129  A    between atoms: _307  and  _309
REMARK  130  A    between atoms: _309  and  _310
REMARK  131  A    between atoms: _309  and  _312
REMARK  132  A    between atoms: _312  and  _313
REMARK  133  A    between atoms: _319  and  _321
REMARK  134  A    between atoms: _321  and  _322
REMARK  135  A    between atoms: _321  and  _324
REMARK  136  A    between atoms: _327  and  _329
REMARK  137  A    between atoms: _329  and  _330
REMARK  138  A    between atoms: _329  and  _332
REMARK  139  A    between atoms: _332  and  _333
REMARK  140  A    between atoms: _336  and  _338
REMARK  141  A    between atoms: _338  and  _339
REMARK  142  A    between atoms: _338  and  _341
REMARK  143  A    between atoms: _341  and  _342
REMARK  144  A    between atoms: _344  and  _346
REMARK  145  A    between atoms: _346  and  _347
REMARK  146  A    between atoms: _346  and  _349
REMARK  147  A    between atoms: _349  and  _350
REMARK  148  A    between atoms: _353  and  _355
REMARK  149  A    between atoms: _355  and  _356
REMARK  150  A    between atoms: _358  and  _360
REMARK  151  A    between atoms: _360  and  _361
REMARK  152  A    between atoms: _360  and  _363
REMARK  153  A    between atoms: _363  and  _364
REMARK  154  A    between atoms: _367  and  _369
REMARK  155  A    between atoms: _369  and  _370
REMARK  156  A    between atoms: _369  and  _372
REMARK  157  A    between atoms: _375  and  _376
REMARK  158  A    between atoms: _381  and  _383
REMARK  159  A    between atoms: _383  and  _384
REMARK  160  A    between atoms: _383  and  _386
REMARK  161  A    between atoms: _386  and  _387
REMARK  162  A    between atoms: _390  and  _392
REMARK  163  A    between atoms: _392  and  _393
REMARK  164  A    between atoms: _392  and  _395
REMARK  165  A    between atoms: _398  and  _400
REMARK  166  A    between atoms: _400  and  _401
REMARK  167  A    between atoms: _400  and  _403
REMARK  168  A    between atoms: _406  and  _408
REMARK  169  A    between atoms: _408  and  _409
REMARK  170  A    between atoms: _408  and  _411
REMARK  171  A    between atoms: _411  and  _412
REMARK  172  A    between atoms: _416  and  _417
REMARK  173  A    between atoms: _422  and  _424
REMARK  174  A    between atoms: _424  and  _425
REMARK  175  A    between atoms: _424  and  _427
REMARK  176  A    between atoms: _427  and  _428
REMARK  177  A    between atoms: _433  and  _434
REMARK  178  A    between atoms: _436  and  _438
REMARK  179  A    between atoms: _438  and  _439
REMARK  180  A    between atoms: _438  and  _441
REMARK  181  A    between atoms: _441  and  _442
REMARK  182  A    between atoms: _442  and  _443
REMARK  183  A    between atoms: _445  and  _447
REMARK  184  A    between atoms: _447  and  _448
REMARK  185  A    between atoms: _447  and  _450
REMARK  186  A    between atoms: _450  and  _451
REMARK  187  A    between atoms: _451  and  _452
REMARK  188  A    between atoms: _452  and  _453
REMARK  189  A    between atoms: _453  and  _454
REMARK  190  A    between atoms: _458  and  _460
REMARK  191  A    between atoms: _460  and  _461
REMARK  192  A    between atoms: _460  and  _463
REMARK  193  A    between atoms: _463  and  _464
REMARK  194  A    between atoms: _469  and  _471
REMARK  195  A    between atoms: _471  and  _472
REMARK  196  A    between atoms: _474  and  _476
REMARK  197  A    between atoms: _476  and  _477
REMARK  198  A    between atoms: _476  and  _479
REMARK  199  A    between atoms: _479  and  _480
REMARK  200  A    between atoms: _483  and  _485
REMARK  201  A    between atoms: _485  and  _486
REMARK  202  A    between atoms: _485  and  _488
REMARK  203  A    between atoms: _488  and  _489
REMARK  204  A    between atoms: _494  and  _496
REMARK  205  A    between atoms: _496  and  _497
REMARK  206  A    between atoms: _496  and  _499
REMARK  207  A    between atoms: _499  and  _500
REMARK  208  A    between atoms: _503  and  _505
REMARK  209  A    between atoms: _505  and  _506
REMARK  210  A    between atoms: _505  and  _508
REMARK  211  A    between atoms: _508  and  _509
REMARK  212  A    between atoms: _515  and  _517
REMARK  213  A    between atoms: _517  and  _518
REMARK  214  A    between atoms: _517  and  _520
REMARK  215  A    between atoms: _523  and  _525
REMARK  216  A    between atoms: _525  and  _526
REMARK  217  A    between atoms: _525  and  _528
REMARK  218  A    between atoms: _528  and  _529
REMARK  219  A    between atoms: _534  and  _536
REMARK  220  A    between atoms: _536  and  _537
REMARK  221  A    between atoms: _536  and  _539
REMARK  222  A    between atoms: _539  and  _540
REMARK  223  A    between atoms: _540  and  _541
REMARK  224  A    between atoms: _541  and  _542
REMARK  225  A    between atoms: _551  and  _553
REMARK  226  A    between atoms: _553  and  _554
REMARK  227  A    between atoms: _553  and  _556
REMARK  228  A    between atoms: _556  and  _557
REMARK  229  A    between atoms: _562  and  _564
REMARK  230  A    between atoms: _564  and  _565
REMARK  231  A    between atoms: _564  and  _567
REMARK  232  A    between atoms: _569  and  _571
REMARK  233  A    between atoms: _571  and  _572
REMARK  234  A    between atoms: _571  and  _574
REMARK  235  A    between atoms: _574  and  _575
REMARK  236  A    between atoms: _575  and  _576
REMARK  237  A    between atoms: _578  and  _580
REMARK  238  A    between atoms: _580  and  _581
REMARK  239  A    between atoms: _580  and  _583
REMARK  240  A    between atoms: _583  and  _584
REMARK  241  A    between atoms: _587  and  _589
REMARK  242  A    between atoms: _589  and  _590
REMARK  243  A    between atoms: _589  and  _592
REMARK  244  A    between atoms: _592  and  _593
REMARK  245  A    between atoms: _593  and  _594
REMARK  246  A    between atoms: _594  and  _595
REMARK  247  A    between atoms: _595  and  _596
REMARK  248  A    between atoms: _600  and  _602
REMARK  249  A    between atoms: _602  and  _603
REMARK  250  A    between atoms: _602  and  _605
REMARK  251  A    between atoms: _608  and  _610
REMARK  252  A    between atoms: _610  and  _611
REMARK  253  A    between atoms: _614  and  _616
REMARK  254  A    between atoms: _616  and  _617
REMARK  255  A    between atoms: _616  and  _619
REMARK  256  A    between atoms: _619  and  _620
REMARK  257  A    between atoms: _623  and  _625
REMARK  258  A    between atoms: _625  and  _626
REMARK  259  A    between atoms: _625  and  _628
REMARK  260  A    between atoms: _628  and  _629
REMARK  261  A    between atoms: _635  and  _637
REMARK  262  A    between atoms: _637  and  _638
REMARK                            x       y       z     vdW  Elec       q    Type
REMARK                         _______ _______ _______ _____ _____    ______ ____
ROOT
ATOM      1  O   HOH     1      22.417  -4.750  11.100  0.00  0.00    +0.000 OA
ENDROOT
TORSDOF 0
REMARK  Name = ../refined-set-2016/3u6i/3u6i_pocket.pdb
REMARK  262 active torsions:
REMARK  status: ('A' for Active; 'I' for Inactive)
REMARK    1  A    between atoms: _1  and  _3
REMARK    2  A    between atoms: _3  and  _4
REMARK    3  A    between atoms: _3  and  _6
REMARK    4  A    between atoms: _9  and  _11
REMARK    5  A    between atoms: _11  and  _12
REMARK    6  A    between atoms: _11  and  _14
REMARK    7  A    between atoms: _17  and  _19
REMARK    8  A    between atoms: _19  and  _20
REMARK    9  A    between atoms: _19  and  _22
REMARK   10  A    between atoms: _22  and  _23
REMARK   11  A    between atoms: _26  and  _28
REMARK   12  A    between atoms: _28  and  _29
REMARK   13  A    between atoms: _31  and  _33
REMARK   14  A    between atoms: _33  and  _34
REMARK   15  A    between atoms: _33  and  _36
REMARK   16  A    between atoms: _36  and  _37
REMARK   17  A    between atoms: _37  and  _38
REMARK   18  A    between atoms: _38  and  _39
REMARK   19  A    between atoms: _48  and  _50
REMARK   20  A    between atoms: _50  and  _51
REMARK   21  A    between atoms: _53  and  _55
REMARK   22  A    between atoms: _55  and  _56
REMARK   23  A    between atoms: _55  and  _58
REMARK   24  A    between atoms: _58  and  _59
REMARK   25  A    between atoms: _64  and  _66
REMARK   26  A    between atoms: _66  and  _67
REMARK   27  A    between atoms: _66  and  _69
REMARK   28  A    between atoms: _69  and  _70
REMARK   29  A    between atoms: _76  and  _78
REMARK   30  A    between atoms: _78  and  _79
REMARK   31  A    between atoms: _81  and  _83
REMARK   32  A    between atoms: _83  and  _84
REMARK   33  A    between atoms: _83  and  _86
REMARK   34  A    between atoms: _88  and  _90
REMARK   35  A    between atoms: _90  and  _91
REMARK   36  A    between atoms: _90  and  _93
REMARK   37  A    between atoms: _96  and  _98
REMARK   38  A    between atoms: _98  and  _99
REMARK   39  A    between atoms: _98  and  _101
REMARK   40  A    between atoms: _101  and  _102
REMARK   41  A    between atoms: _107  and  _108
REMARK   42  A    between atoms: _110  and  _112
REMARK   43  A    between atoms: _112  and  _113
REMARK   44  A    between atoms: _112  and  _115
REMARK   45  A    between atoms: _115  and  _116
REMARK   46  A    between atoms: _121  and  _123
REMARK   47  A    between atoms: _123  and  _124
REMARK   48  A    between atoms: _123  and  _126
REMARK   49  A    between atoms: _126  and  _127
REMARK   50  A    between atoms: _132  and  _134
REMARK   51  A    between atoms: _134  and  _135
REMARK   52  A    between atoms: _134  and  _137
REMARK   53  A    between atoms: _139  and  _141
REMARK   54  A    between atoms: _141  and  _142
REMARK   55  A    between atoms: _145  and  _147
REMARK   56  A    between atoms: _147  and  _148
REMARK   57  A    between atoms: _147  and  _150
REMARK   58  A    between atoms: _153  and  _155
REMARK   59  A    between atoms: _155  and  _156
REMARK   60  A    between atoms: _155  and  _158
REMARK   61  A    between atoms: _158  and  _159
REMARK   62  A    between atoms: _159  and  _160
REMARK   63  A    between atoms: _160  and  _161
REMARK   64  A    between atoms: _161  and  _162
REMARK   65  A    between atoms: _166  and  _168
REMARK   66  A    between atoms: _168  and  _169
REMARK   67  A    between atoms: _168  and  _171
REMARK   68  A    between atoms: _171  and  _172
REMARK   69  A    between atoms: _174  and  _176
REMARK   70  A    between atoms: _176  and  _177
REMARK   71  A    between atoms: _176  and  _179
REMARK   72  A    between atoms: _179  and  _180
REMARK   73  A    between atoms: _183  and  _185
REMARK   74  A    between atoms: _185  and  _186
REMARK   75  A    between atoms: _185  and  _188
REMARK   76  A    between atoms: _188  and  _189
REMARK   77  A    between atoms: _192  and  _194
REMARK   78  A    between atoms: _194  and  _195
REMARK   79  A    between atoms: _194  and  _197
REMARK   80  A    between atoms: _197  and  _198
REMARK   81  A    between atoms: _198  and  _199
REMARK   82  A    between atoms: _202  and  _204
REMARK   83  A    between atoms: _204  and  _205
REMARK   84  A    between atoms: _204  and  _207
REMARK   85  A    between atoms: _210  and  _212
REMARK   86  A    between atoms: _212  and  _213
REMARK   87  A    between atoms: _212  and  _215
REMARK   88  A    between atoms: _215  and  _216
REMARK   89  A    between atoms: _216  and  _217
REMARK   90  A    between atoms: _222  and  _224
REMARK   91  A    between atoms: _224  and  _225
REMARK   92  A    between atoms: _224  and  _227
REMARK   93  A    between atoms: _227  and  _228
REMARK   94  A    between atoms: _234  and  _236
REMARK   95  A    between atoms: _236  and  _237
REMARK   96  A    between atoms: _236  and  _239
REMARK   97  A    between atoms: _239  and  _240
REMARK   98  A    between atoms: _243  and  _245
REMARK   99  A    between atoms: _245  and  _246
REMARK  100  A    between atoms: _245  and  _248
REMARK  101  A    between atoms: _248  and  _249
REMARK  102  A    between atoms: _252  and  _254
REMARK  103  A    between atoms: _254  and  _255
REMARK  104  A    between atoms: _254  and  _257
REMARK  105  A    between atoms: _257  and  _258
REMARK  106  A    between atoms: _258  and  _259
REMARK  107  A    between atoms: _262  and  _264
REMARK  108  A    between atoms: _264  and  _265
REMARK  109  A    between atoms: _267  and  _269
REMARK  110  A    between atoms: _269  and  _270
REMARK  111  A    between atoms: _269  and  _272
REMARK  112  A    between atoms: _272  and  _273
REMARK  113  A    between atoms: _276  and  _278
REMARK  114  A    between atoms: _278  and  _279
REMARK  115  A    between atoms: _278  and  _281
REMARK  116  A    between atoms: _281  and  _282
REMARK  117  A    between atoms: _285  and  _287
REMARK  118  A    between atoms: _287  and  _288
REMARK  119  A    between atoms: _287  and  _290
REMARK  120  A    between atoms: _290  and  _291
REMARK  121  A    between atoms: _291  and  _292
REMARK  122  A    between atoms: _294  and  _296
REMARK  123  A    between atoms: _296  and  _297
REMARK  124  A    between atoms: _296  and  _299
REMARK  125  A    between atoms: _299  and  _300
REMARK  126  A    between atoms: _300  and  _301
REMARK  127  A    between atoms: _301  and  _302
REMARK  128  A    between atoms: _302  and  _303
REMARK  129  A    between atoms: _307  and  _309
REMARK  130  A    between atoms: _309  and  _310
REMARK  131  A    between atoms: _309  and  _312
REMARK  132  A    between atoms: _312  and  _313
REMARK  133  A    between atoms: _319  and  _321
REMARK  134  A    between atoms: _321  and  _322
REMARK  135  A    between atoms: _321  and  _324
REMARK  136  A    between atoms: _327  and  _329
REMARK  137  A    between atoms: _329  and  _330
REMARK  138  A    between atoms: _329  and  _332
REMARK  139  A    between atoms: _332  and  _333
REMARK  140  A    between atoms: _336  and  _338
REMARK  141  A    between atoms: _338  and  _339
REMARK  142  A    between atoms: _338  and  _341
REMARK  143  A    between atoms: _341  and  _342
REMARK  144  A    between atoms: _344  and  _346
REMARK  145  A    between atoms: _346  and  _347
REMARK  146  A    between atoms: _346  and  _349
REMARK  147  A    between atoms: _349  and  _350
REMARK  148  A    between atoms: _353  and  _355
REMARK  149  A    between atoms: _355  and  _356
REMARK  150  A    between atoms: _358  and  _360
REMARK  151  A    between atoms: _360  and  _361
REMARK  152  A    between atoms: _360  and  _363
REMARK  153  A    between atoms: _363  and  _364
REMARK  154  A    between atoms: _367  and  _369
REMARK  155  A    between atoms: _369  and  _370
REMARK  156  A    between atoms: _369  and  _372
REMARK  157  A    between atoms: _375  and  _376
REMARK  158  A    between atoms: _381  and  _383
REMARK  159  A    between atoms: _383  and  _384
REMARK  160  A    between atoms: _383  and  _386
REMARK  161  A    between atoms: _386  and  _387
REMARK  162  A    between atoms: _390  and  _392
REMARK  163  A    between atoms: _392  and  _393
REMARK  164  A    between atoms: _392  and  _395
REMARK  165  A    between atoms: _398  and  _400
REMARK  166  A    between atoms: _400  and  _401
REMARK  167  A    between atoms: _400  and  _403
REMARK  168  A    between atoms: _406  and  _408
REMARK  169  A    between atoms: _408  and  _409
REMARK  170  A    between atoms: _408  and  _411
REMARK  171  A    between atoms: _411  and  _412
REMARK  172  A    between atoms: _416  and  _417
REMARK  173  A    between atoms: _422  and  _424
REMARK  174  A    between atoms: _424  and  _425
REMARK  175  A    between atoms: _424  and  _427
REMARK  176  A    between atoms: _427  and  _428
REMARK  177  A    between atoms: _433  and  _434
REMARK  178  A    between atoms: _436  and  _438
REMARK  179  A    between atoms: _438  and  _439
REMARK  180  A    between atoms: _438  and  _441
REMARK  181  A    between atoms: _441  and  _442
REMARK  182  A    between atoms: _442  and  _443
REMARK  183  A    between atoms: _445  and  _447
REMARK  184  A    between atoms: _447  and  _448
REMARK  185  A    between atoms: _447  and  _450
REMARK  186  A    between atoms: _450  and  _451
REMARK  187  A    between atoms: _451  and  _452
REMARK  188  A    between atoms: _452  and  _453
REMARK  189  A    between atoms: _453  and  _454
REMARK  190  A    between atoms: _458  and  _460
REMARK  191  A    between atoms: _460  and  _461
REMARK  192  A    between atoms: _460  and  _463
REMARK  193  A    between atoms: _463  and  _464
REMARK  194  A    between atoms: _469  and  _471
REMARK  195  A    between atoms: _471  and  _472
REMARK  196  A    between atoms: _474  and  _476
REMARK  197  A    between atoms: _476  and  _477
REMARK  198  A    between atoms: _476  and  _479
REMARK  199  A    between atoms: _479  and  _480
REMARK  200  A    between atoms: _483  and  _485
REMARK  201  A    between atoms: _485  and  _486
REMARK  202  A    between atoms: _485  and  _488
REMARK  203  A    between atoms: _488  and  _489
REMARK  204  A    between atoms: _494  and  _496
REMARK  205  A    between atoms: _496  and  _497
REMARK  206  A    between atoms: _496  and  _499
REMARK  207  A    between atoms: _499  and  _500
REMARK  208  A    between atoms: _503  and  _505
REMARK  209  A    between atoms: _505  and  _506
REMARK  210  A    between atoms: _505  and  _508
REMARK  211  A    between atoms: _508  and  _509
REMARK  212  A    between atoms: _515  and  _517
REMARK  213  A    between atoms: _517  and  _518
REMARK  214  A    between atoms: _517  and  _520
REMARK  215  A    between atoms: _523  and  _525
REMARK  216  A    between atoms: _525  and  _526
REMARK  217  A    between atoms: _525  and  _528
REMARK  218  A    between atoms: _528  and  _529
REMARK  219  A    between atoms: _534  and  _536
REMARK  220  A    between atoms: _536  and  _537
REMARK  221  A    between atoms: _536  and  _539
REMARK  222  A    between atoms: _539  and  _540
REMARK  223  A    between atoms: _540  and  _541
REMARK  224  A    between atoms: _541  and  _542
REMARK  225  A    between atoms: _551  and  _553
REMARK  226  A    between atoms: _553  and  _554
REMARK  227  A    between atoms: _553  and  _556
REMARK  228  A    between atoms: _556  and  _557
REMARK  229  A    between atoms: _562  and  _564
REMARK  230  A    between atoms: _564  and  _565
REMARK  231  A    between atoms: _564  and  _567
REMARK  232  A    between atoms: _569  and  _571
REMARK  233  A    between atoms: _571  and  _572
REMARK  234  A    between atoms: _571  and  _574
REMARK  235  A    between atoms: _574  and  _575
REMARK  236  A    between atoms: _575  and  _576
REMARK  237  A    between atoms: _578  and  _580
REMARK  238  A    between atoms: _580  and  _581
REMARK  239  A    between atoms: _580  and  _583
REMARK  240  A    between atoms: _583  and  _584
REMARK  241  A    between atoms: _587  and  _589
REMARK  242  A    between atoms: _589  and  _590
REMARK  243  A    between atoms: _589  and  _592
REMARK  244  A    between atoms: _592  and  _593
REMARK  245  A    between atoms: _593  and  _594
REMARK  246  A    between atoms: _594  and  _595
REMARK  247  A    between atoms: _595  and  _596
REMARK  248  A    between atoms: _600  and  _602
REMARK  249  A    between atoms: _602  and  _603
REMARK  250  A    between atoms: _602  and  _605
REMARK  251  A    between atoms: _608  and  _610
REMARK  252  A    between atoms: _610  and  _611
REMARK  253  A    between atoms: _614  and  _616
REMARK  254  A    between atoms: _616  and  _617
REMARK  255  A    between atoms: _616  and  _619
REMARK  256  A    between atoms: _619  and  _620
REMARK  257  A    between atoms: _623  and  _625
REMARK  258  A    between atoms: _625  and  _626
REMARK  259  A    between atoms: _625  and  _628
REMARK  260  A    between atoms: _628  and  _629
REMARK  261  A    between atoms: _635  and  _637
REMARK  262  A    between atoms: _637  and  _638
REMARK                            x       y       z     vdW  Elec       q    Type
REMARK                         _______ _______ _______ _____ _____    ______ ____
ROOT
ATOM      1  O   HOH     1      15.854  -2.491  28.444  0.00  0.00    +0.000 OA
ENDROOT
TORSDOF 0
REMARK  Name = ../refined-set-2016/3u6i/3u6i_pocket.pdb
REMARK  262 active torsions:
REMARK  status: ('A' for Active; 'I' for Inactive)
REMARK    1  A    between atoms: _1  and  _3
REMARK    2  A    between atoms: _3  and  _4
REMARK    3  A    between atoms: _3  and  _6
REMARK    4  A    between atoms: _9  and  _11
REMARK    5  A    between atoms: _11  and  _12
REMARK    6  A    between atoms: _11  and  _14
REMARK    7  A    between atoms: _17  and  _19
REMARK    8  A    between atoms: _19  and  _20
REMARK    9  A    between atoms: _19  and  _22
REMARK   10  A    between atoms: _22  and  _23
REMARK   11  A    between atoms: _26  and  _28
REMARK   12  A    between atoms: _28  and  _29
REMARK   13  A    between atoms: _31  and  _33
REMARK   14  A    between atoms: _33  and  _34
REMARK   15  A    between atoms: _33  and  _36
REMARK   16  A    between atoms: _36  and  _37
REMARK   17  A    between atoms: _37  and  _38
REMARK   18  A    between atoms: _38  and  _39
REMARK   19  A    between atoms: _48  and  _50
REMARK   20  A    between atoms: _50  and  _51
REMARK   21  A    between atoms: _53  and  _55
REMARK   22  A    between atoms: _55  and  _56
REMARK   23  A    between atoms: _55  and  _58
REMARK   24  A    between atoms: _58  and  _59
REMARK   25  A    between atoms: _64  and  _66
REMARK   26  A    between atoms: _66  and  _67
REMARK   27  A    between atoms: _66  and  _69
REMARK   28  A    between atoms: _69  and  _70
REMARK   29  A    between atoms: _76  and  _78
REMARK   30  A    between atoms: _78  and  _79
REMARK   31  A    between atoms: _81  and  _83
REMARK   32  A    between atoms: _83  and  _84
REMARK   33  A    between atoms: _83  and  _86
REMARK   34  A    between atoms: _88  and  _90
REMARK   35  A    between atoms: _90  and  _91
REMARK   36  A    between atoms: _90  and  _93
REMARK   37  A    between atoms: _96  and  _98
REMARK   38  A    between atoms: _98  and  _99
REMARK   39  A    between atoms: _98  and  _101
REMARK   40  A    between atoms: _101  and  _102
REMARK   41  A    between atoms: _107  and  _108
REMARK   42  A    between atoms: _110  and  _112
REMARK   43  A    between atoms: _112  and  _113
REMARK   44  A    between atoms: _112  and  _115
REMARK   45  A    between atoms: _115  and  _116
REMARK   46  A    between atoms: _121  and  _123
REMARK   47  A    between atoms: _123  and  _124
REMARK   48  A    between atoms: _123  and  _126
REMARK   49  A    between atoms: _126  and  _127
REMARK   50  A    between atoms: _132  and  _134
REMARK   51  A    between atoms: _134  and  _135
REMARK   52  A    between atoms: _134  and  _137
REMARK   53  A    between atoms: _139  and  _141
REMARK   54  A    between atoms: _141  and  _142
REMARK   55  A    between atoms: _145  and  _147
REMARK   56  A    between atoms: _147  and  _148
REMARK   57  A    between atoms: _147  and  _150
REMARK   58  A    between atoms: _153  and  _155
REMARK   59  A    between atoms: _155  and  _156
REMARK   60  A    between atoms: _155  and  _158
REMARK   61  A    between atoms: _158  and  _159
REMARK   62  A    between atoms: _159  and  _160
REMARK   63  A    between atoms: _160  and  _161
REMARK   64  A    between atoms: _161  and  _162
REMARK   65  A    between atoms: _166  and  _168
REMARK   66  A    between atoms: _168  and  _169
REMARK   67  A    between atoms: _168  and  _171
REMARK   68  A    between atoms: _171  and  _172
REMARK   69  A    between atoms: _174  and  _176
REMARK   70  A    between atoms: _176  and  _177
REMARK   71  A    between atoms: _176  and  _179
REMARK   72  A    between atoms: _179  and  _180
REMARK   73  A    between atoms: _183  and  _185
REMARK   74  A    between atoms: _185  and  _186
REMARK   75  A    between atoms: _185  and  _188
REMARK   76  A    between atoms: _188  and  _189
REMARK   77  A    between atoms: _192  and  _194
REMARK   78  A    between atoms: _194  and  _195
REMARK   79  A    between atoms: _194  and  _197
REMARK   80  A    between atoms: _197  and  _198
REMARK   81  A    between atoms: _198  and  _199
REMARK   82  A    between atoms: _202  and  _204
REMARK   83  A    between atoms: _204  and  _205
REMARK   84  A    between atoms: _204  and  _207
REMARK   85  A    between atoms: _210  and  _212
REMARK   86  A    between atoms: _212  and  _213
REMARK   87  A    between atoms: _212  and  _215
REMARK   88  A    between atoms: _215  and  _216
REMARK   89  A    between atoms: _216  and  _217
REMARK   90  A    between atoms: _222  and  _224
REMARK   91  A    between atoms: _224  and  _225
REMARK   92  A    between atoms: _224  and  _227
REMARK   93  A    between atoms: _227  and  _228
REMARK   94  A    between atoms: _234  and  _236
REMARK   95  A    between atoms: _236  and  _237
REMARK   96  A    between atoms: _236  and  _239
REMARK   97  A    between atoms: _239  and  _240
REMARK   98  A    between atoms: _243  and  _245
REMARK   99  A    between atoms: _245  and  _246
REMARK  100  A    between atoms: _245  and  _248
REMARK  101  A    between atoms: _248  and  _249
REMARK  102  A    between atoms: _252  and  _254
REMARK  103  A    between atoms: _254  and  _255
REMARK  104  A    between atoms: _254  and  _257
REMARK  105  A    between atoms: _257  and  _258
REMARK  106  A    between atoms: _258  and  _259
REMARK  107  A    between atoms: _262  and  _264
REMARK  108  A    between atoms: _264  and  _265
REMARK  109  A    between atoms: _267  and  _269
REMARK  110  A    between atoms: _269  and  _270
REMARK  111  A    between atoms: _269  and  _272
REMARK  112  A    between atoms: _272  and  _273
REMARK  113  A    between atoms: _276  and  _278
REMARK  114  A    between atoms: _278  and  _279
REMARK  115  A    between atoms: _278  and  _281
REMARK  116  A    between atoms: _281  and  _282
REMARK  117  A    between atoms: _285  and  _287
REMARK  118  A    between atoms: _287  and  _288
REMARK  119  A    between atoms: _287  and  _290
REMARK  120  A    between atoms: _290  and  _291
REMARK  121  A    between atoms: _291  and  _292
REMARK  122  A    between atoms: _294  and  _296
REMARK  123  A    between atoms: _296  and  _297
REMARK  124  A    between atoms: _296  and  _299
REMARK  125  A    between atoms: _299  and  _300
REMARK  126  A    between atoms: _300  and  _301
REMARK  127  A    between atoms: _301  and  _302
REMARK  128  A    between atoms: _302  and  _303
REMARK  129  A    between atoms: _307  and  _309
REMARK  130  A    between atoms: _309  and  _310
REMARK  131  A    between atoms: _309  and  _312
REMARK  132  A    between atoms: _312  and  _313
REMARK  133  A    between atoms: _319  and  _321
REMARK  134  A    between atoms: _321  and  _322
REMARK  135  A    between atoms: _321  and  _324
REMARK  136  A    between atoms: _327  and  _329
REMARK  137  A    between atoms: _329  and  _330
REMARK  138  A    between atoms: _329  and  _332
REMARK  139  A    between atoms: _332  and  _333
REMARK  140  A    between atoms: _336  and  _338
REMARK  141  A    between atoms: _338  and  _339
REMARK  142  A    between atoms: _338  and  _341
REMARK  143  A    between atoms: _341  and  _342
REMARK  144  A    between atoms: _344  and  _346
REMARK  145  A    between atoms: _346  and  _347
REMARK  146  A    between atoms: _346  and  _349
REMARK  147  A    between atoms: _349  and  _350
REMARK  148  A    between atoms: _353  and  _355
REMARK  149  A    between atoms: _355  and  _356
REMARK  150  A    between atoms: _358  and  _360
REMARK  151  A    between atoms: _360  and  _361
REMARK  152  A    between atoms: _360  and  _363
REMARK  153  A    between atoms: _363  and  _364
REMARK  154  A    between atoms: _367  and  _369
REMARK  155  A    between atoms: _369  and  _370
REMARK  156  A    between atoms: _369  and  _372
REMARK  157  A    between atoms: _375  and  _376
REMARK  158  A    between atoms: _381  and  _383
REMARK  159  A    between atoms: _383  and  _384
REMARK  160  A    between atoms: _383  and  _386
REMARK  161  A    between atoms: _386  and  _387
REMARK  162  A    between atoms: _390  and  _392
REMARK  163  A    between atoms: _392  and  _393
REMARK  164  A    between atoms: _392  and  _395
REMARK  165  A    between atoms: _398  and  _400
REMARK  166  A    between atoms: _400  and  _401
REMARK  167  A    between atoms: _400  and  _403
REMARK  168  A    between atoms: _406  and  _408
REMARK  169  A    between atoms: _408  and  _409
REMARK  170  A    between atoms: _408  and  _411
REMARK  171  A    between atoms: _411  and  _412
REMARK  172  A    between atoms: _416  and  _417
REMARK  173  A    between atoms: _422  and  _424
REMARK  174  A    between atoms: _424  and  _425
REMARK  175  A    between atoms: _424  and  _427
REMARK  176  A    between atoms: _427  and  _428
REMARK  177  A    between atoms: _433  and  _434
REMARK  178  A    between atoms: _436  and  _438
REMARK  179  A    between atoms: _438  and  _439
REMARK  180  A    between atoms: _438  and  _441
REMARK  181  A    between atoms: _441  and  _442
REMARK  182  A    between atoms: _442  and  _443
REMARK  183  A    between atoms: _445  and  _447
REMARK  184  A    between atoms: _447  and  _448
REMARK  185  A    between atoms: _447  and  _450
REMARK  186  A    between atoms: _450  and  _451
REMARK  187  A    between atoms: _451  and  _452
REMARK  188  A    between atoms: _452  and  _453
REMARK  189  A    between atoms: _453  and  _454
REMARK  190  A    between atoms: _458  and  _460
REMARK  191  A    between atoms: _460  and  _461
REMARK  192  A    between atoms: _460  and  _463
REMARK  193  A    between atoms: _463  and  _464
REMARK  194  A    between atoms: _469  and  _471
REMARK  195  A    between atoms: _471  and  _472
REMARK  196  A    between atoms: _474  and  _476
REMARK  197  A    between atoms: _476  and  _477
REMARK  198  A    between atoms: _476  and  _479
REMARK  199  A    between atoms: _479  and  _480
REMARK  200  A    between atoms: _483  and  _485
REMARK  201  A    between atoms: _485  and  _486
REMARK  202  A    between atoms: _485  and  _488
REMARK  203  A    between atoms: _488  and  _489
REMARK  204  A    between atoms: _494  and  _496
REMARK  205  A    between atoms: _496  and  _497
REMARK  206  A    between atoms: _496  and  _499
REMARK  207  A    between atoms: _499  and  _500
REMARK  208  A    between atoms: _503  and  _505
REMARK  209  A    between atoms: _505  and  _506
REMARK  210  A    between atoms: _505  and  _508
REMARK  211  A    between atoms: _508  and  _509
REMARK  212  A    between atoms: _515  and  _517
REMARK  213  A    between atoms: _517  and  _518
REMARK  214  A    between atoms: _517  and  _520
REMARK  215  A    between atoms: _523  and  _525
REMARK  216  A    between atoms: _525  and  _526
REMARK  217  A    between atoms: _525  and  _528
REMARK  218  A    between atoms: _528  and  _529
REMARK  219  A    between atoms: _534  and  _536
REMARK  220  A    between atoms: _536  and  _537
REMARK  221  A    between atoms: _536  and  _539
REMARK  222  A    between atoms: _539  and  _540
REMARK  223  A    between atoms: _540  and  _541
REMARK  224  A    between atoms: _541  and  _542
REMARK  225  A    between atoms: _551  and  _553
REMARK  226  A    between atoms: _553  and  _554
REMARK  227  A    between atoms: _553  and  _556
REMARK  228  A    between atoms: _556  and  _557
REMARK  229  A    between atoms: _562  and  _564
REMARK  230  A    between atoms: _564  and  _565
REMARK  231  A    between atoms: _564  and  _567
REMARK  232  A    between atoms: _569  and  _571
REMARK  233  A    between atoms: _571  and  _572
REMARK  234  A    between atoms: _571  and  _574
REMARK  235  A    between atoms: _574  and  _575
REMARK  236  A    between atoms: _575  and  _576
REMARK  237  A    between atoms: _578  and  _580
REMARK  238  A    between atoms: _580  and  _581
REMARK  239  A    between atoms: _580  and  _583
REMARK  240  A    between atoms: _583  and  _584
REMARK  241  A    between atoms: _587  and  _589
REMARK  242  A    between atoms: _589  and  _590
REMARK  243  A    between atoms: _589  and  _592
REMARK  244  A    between atoms: _592  and  _593
REMARK  245  A    between atoms: _593  and  _594
REMARK  246  A    between atoms: _594  and  _595
REMARK  247  A    between atoms: _595  and  _596
REMARK  248  A    between atoms: _600  and  _602
REMARK  249  A    between atoms: _602  and  _603
REMARK  250  A    between atoms: _602  and  _605
REMARK  251  A    between atoms: _608  and  _610
REMARK  252  A    between atoms: _610  and  _611
REMARK  253  A    between atoms: _614  and  _616
REMARK  254  A    between atoms: _616  and  _617
REMARK  255  A    between atoms: _616  and  _619
REMARK  256  A    between atoms: _619  and  _620
REMARK  257  A    between atoms: _623  and  _625
REMARK  258  A    between atoms: _625  and  _626
REMARK  259  A    between atoms: _625  and  _628
REMARK  260  A    between atoms: _628  and  _629
REMARK  261  A    between atoms: _635  and  _637
REMARK  262  A    between atoms: _637  and  _638
REMARK                            x       y       z     vdW  Elec       q    Type
REMARK                         _______ _______ _______ _____ _____    ______ ____
ROOT
ATOM      1  O   HOH     1      23.417  -5.464   3.076  0.00  0.00    +0.000 OA
ENDROOT
TORSDOF 0
REMARK  Name = ../refined-set-2016/3u6i/3u6i_pocket.pdb
REMARK  262 active torsions:
REMARK  status: ('A' for Active; 'I' for Inactive)
REMARK    1  A    between atoms: _1  and  _3
REMARK    2  A    between atoms: _3  and  _4
REMARK    3  A    between atoms: _3  and  _6
REMARK    4  A    between atoms: _9  and  _11
REMARK    5  A    between atoms: _11  and  _12
REMARK    6  A    between atoms: _11  and  _14
REMARK    7  A    between atoms: _17  and  _19
REMARK    8  A    between atoms: _19  and  _20
REMARK    9  A    between atoms: _19  and  _22
REMARK   10  A    between atoms: _22  and  _23
REMARK   11  A    between atoms: _26  and  _28
REMARK   12  A    between atoms: _28  and  _29
REMARK   13  A    between atoms: _31  and  _33
REMARK   14  A    between atoms: _33  and  _34
REMARK   15  A    between atoms: _33  and  _36
REMARK   16  A    between atoms: _36  and  _37
REMARK   17  A    between atoms: _37  and  _38
REMARK   18  A    between atoms: _38  and  _39
REMARK   19  A    between atoms: _48  and  _50
REMARK   20  A    between atoms: _50  and  _51
REMARK   21  A    between atoms: _53  and  _55
REMARK   22  A    between atoms: _55  and  _56
REMARK   23  A    between atoms: _55  and  _58
REMARK   24  A    between atoms: _58  and  _59
REMARK   25  A    between atoms: _64  and  _66
REMARK   26  A    between atoms: _66  and  _67
REMARK   27  A    between atoms: _66  and  _69
REMARK   28  A    between atoms: _69  and  _70
REMARK   29  A    between atoms: _76  and  _78
REMARK   30  A    between atoms: _78  and  _79
REMARK   31  A    between atoms: _81  and  _83
REMARK   32  A    between atoms: _83  and  _84
REMARK   33  A    between atoms: _83  and  _86
REMARK   34  A    between atoms: _88  and  _90
REMARK   35  A    between atoms: _90  and  _91
REMARK   36  A    between atoms: _90  and  _93
REMARK   37  A    between atoms: _96  and  _98
REMARK   38  A    between atoms: _98  and  _99
REMARK   39  A    between atoms: _98  and  _101
REMARK   40  A    between atoms: _101  and  _102
REMARK   41  A    between atoms: _107  and  _108
REMARK   42  A    between atoms: _110  and  _112
REMARK   43  A    between atoms: _112  and  _113
REMARK   44  A    between atoms: _112  and  _115
REMARK   45  A    between atoms: _115  and  _116
REMARK   46  A    between atoms: _121  and  _123
REMARK   47  A    between atoms: _123  and  _124
REMARK   48  A    between atoms: _123  and  _126
REMARK   49  A    between atoms: _126  and  _127
REMARK   50  A    between atoms: _132  and  _134
REMARK   51  A    between atoms: _134  and  _135
REMARK   52  A    between atoms: _134  and  _137
REMARK   53  A    between atoms: _139  and  _141
REMARK   54  A    between atoms: _141  and  _142
REMARK   55  A    between atoms: _145  and  _147
REMARK   56  A    between atoms: _147  and  _148
REMARK   57  A    between atoms: _147  and  _150
REMARK   58  A    between atoms: _153  and  _155
REMARK   59  A    between atoms: _155  and  _156
REMARK   60  A    between atoms: _155  and  _158
REMARK   61  A    between atoms: _158  and  _159
REMARK   62  A    between atoms: _159  and  _160
REMARK   63  A    between atoms: _160  and  _161
REMARK   64  A    between atoms: _161  and  _162
REMARK   65  A    between atoms: _166  and  _168
REMARK   66  A    between atoms: _168  and  _169
REMARK   67  A    between atoms: _168  and  _171
REMARK   68  A    between atoms: _171  and  _172
REMARK   69  A    between atoms: _174  and  _176
REMARK   70  A    between atoms: _176  and  _177
REMARK   71  A    between atoms: _176  and  _179
REMARK   72  A    between atoms: _179  and  _180
REMARK   73  A    between atoms: _183  and  _185
REMARK   74  A    between atoms: _185  and  _186
REMARK   75  A    between atoms: _185  and  _188
REMARK   76  A    between atoms: _188  and  _189
REMARK   77  A    between atoms: _192  and  _194
REMARK   78  A    between atoms: _194  and  _195
REMARK   79  A    between atoms: _194  and  _197
REMARK   80  A    between atoms: _197  and  _198
REMARK   81  A    between atoms: _198  and  _199
REMARK   82  A    between atoms: _202  and  _204
REMARK   83  A    between atoms: _204  and  _205
REMARK   84  A    between atoms: _204  and  _207
REMARK   85  A    between atoms: _210  and  _212
REMARK   86  A    between atoms: _212  and  _213
REMARK   87  A    between atoms: _212  and  _215
REMARK   88  A    between atoms: _215  and  _216
REMARK   89  A    between atoms: _216  and  _217
REMARK   90  A    between atoms: _222  and  _224
REMARK   91  A    between atoms: _224  and  _225
REMARK   92  A    between atoms: _224  and  _227
REMARK   93  A    between atoms: _227  and  _228
REMARK   94  A    between atoms: _234  and  _236
REMARK   95  A    between atoms: _236  and  _237
REMARK   96  A    between atoms: _236  and  _239
REMARK   97  A    between atoms: _239  and  _240
REMARK   98  A    between atoms: _243  and  _245
REMARK   99  A    between atoms: _245  and  _246
REMARK  100  A    between atoms: _245  and  _248
REMARK  101  A    between atoms: _248  and  _249
REMARK  102  A    between atoms: _252  and  _254
REMARK  103  A    between atoms: _254  and  _255
REMARK  104  A    between atoms: _254  and  _257
REMARK  105  A    between atoms: _257  and  _258
REMARK  106  A    between atoms: _258  and  _259
REMARK  107  A    between atoms: _262  and  _264
REMARK  108  A    between atoms: _264  and  _265
REMARK  109  A    between atoms: _267  and  _269
REMARK  110  A    between atoms: _269  and  _270
REMARK  111  A    between atoms: _269  and  _272
REMARK  112  A    between atoms: _272  and  _273
REMARK  113  A    between atoms: _276  and  _278
REMARK  114  A    between atoms: _278  and  _279
REMARK  115  A    between atoms: _278  and  _281
REMARK  116  A    between atoms: _281  and  _282
REMARK  117  A    between atoms: _285  and  _287
REMARK  118  A    between atoms: _287  and  _288
REMARK  119  A    between atoms: _287  and  _290
REMARK  120  A    between atoms: _290  and  _291
REMARK  121  A    between atoms: _291  and  _292
REMARK  122  A    between atoms: _294  and  _296
REMARK  123  A    between atoms: _296  and  _297
REMARK  124  A    between atoms: _296  and  _299
REMARK  125  A    between atoms: _299  and  _300
REMARK  126  A    between atoms: _300  and  _301
REMARK  127  A    between atoms: _301  and  _302
REMARK  128  A    between atoms: _302  and  _303
REMARK  129  A    between atoms: _307  and  _309
REMARK  130  A    between atoms: _309  and  _310
REMARK  131  A    between atoms: _309  and  _312
REMARK  132  A    between atoms: _312  and  _313
REMARK  133  A    between atoms: _319  and  _321
REMARK  134  A    between atoms: _321  and  _322
REMARK  135  A    between atoms: _321  and  _324
REMARK  136  A    between atoms: _327  and  _329
REMARK  137  A    between atoms: _329  and  _330
REMARK  138  A    between atoms: _329  and  _332
REMARK  139  A    between atoms: _332  and  _333
REMARK  140  A    between atoms: _336  and  _338
REMARK  141  A    between atoms: _338  and  _339
REMARK  142  A    between atoms: _338  and  _341
REMARK  143  A    between atoms: _341  and  _342
REMARK  144  A    between atoms: _344  and  _346
REMARK  145  A    between atoms: _346  and  _347
REMARK  146  A    between atoms: _346  and  _349
REMARK  147  A    between atoms: _349  and  _350
REMARK  148  A    between atoms: _353  and  _355
REMARK  149  A    between atoms: _355  and  _356
REMARK  150  A    between atoms: _358  and  _360
REMARK  151  A    between atoms: _360  and  _361
REMARK  152  A    between atoms: _360  and  _363
REMARK  153  A    between atoms: _363  and  _364
REMARK  154  A    between atoms: _367  and  _369
REMARK  155  A    between atoms: _369  and  _370
REMARK  156  A    between atoms: _369  and  _372
REMARK  157  A    between atoms: _375  and  _376
REMARK  158  A    between atoms: _381  and  _383
REMARK  159  A    between atoms: _383  and  _384
REMARK  160  A    between atoms: _383  and  _386
REMARK  161  A    between atoms: _386  and  _387
REMARK  162  A    between atoms: _390  and  _392
REMARK  163  A    between atoms: _392  and  _393
REMARK  164  A    between atoms: _392  and  _395
REMARK  165  A    between atoms: _398  and  _400
REMARK  166  A    between atoms: _400  and  _401
REMARK  167  A    between atoms: _400  and  _403
REMARK  168  A    between atoms: _406  and  _408
REMARK  169  A    between atoms: _408  and  _409
REMARK  170  A    between atoms: _408  and  _411
REMARK  171  A    between atoms: _411  and  _412
REMARK  172  A    between atoms: _416  and  _417
REMARK  173  A    between atoms: _422  and  _424
REMARK  174  A    between atoms: _424  and  _425
REMARK  175  A    between atoms: _424  and  _427
REMARK  176  A    between atoms: _427  and  _428
REMARK  177  A    between atoms: _433  and  _434
REMARK  178  A    between atoms: _436  and  _438
REMARK  179  A    between atoms: _438  and  _439
REMARK  180  A    between atoms: _438  and  _441
REMARK  181  A    between atoms: _441  and  _442
REMARK  182  A    between atoms: _442  and  _443
REMARK  183  A    between atoms: _445  and  _447
REMARK  184  A    between atoms: _447  and  _448
REMARK  185  A    between atoms: _447  and  _450
REMARK  186  A    between atoms: _450  and  _451
REMARK  187  A    between atoms: _451  and  _452
REMARK  188  A    between atoms: _452  and  _453
REMARK  189  A    between atoms: _453  and  _454
REMARK  190  A    between atoms: _458  and  _460
REMARK  191  A    between atoms: _460  and  _461
REMARK  192  A    between atoms: _460  and  _463
REMARK  193  A    between atoms: _463  and  _464
REMARK  194  A    between atoms: _469  and  _471
REMARK  195  A    between atoms: _471  and  _472
REMARK  196  A    between atoms: _474  and  _476
REMARK  197  A    between atoms: _476  and  _477
REMARK  198  A    between atoms: _476  and  _479
REMARK  199  A    between atoms: _479  and  _480
REMARK  200  A    between atoms: _483  and  _485
REMARK  201  A    between atoms: _485  and  _486
REMARK  202  A    between atoms: _485  and  _488
REMARK  203  A    between atoms: _488  and  _489
REMARK  204  A    between atoms: _494  and  _496
REMARK  205  A    between atoms: _496  and  _497
REMARK  206  A    between atoms: _496  and  _499
REMARK  207  A    between atoms: _499  and  _500
REMARK  208  A    between atoms: _503  and  _505
REMARK  209  A    between atoms: _505  and  _506
REMARK  210  A    between atoms: _505  and  _508
REMARK  211  A    between atoms: _508  and  _509
REMARK  212  A    between atoms: _515  and  _517
REMARK  213  A    between atoms: _517  and  _518
REMARK  214  A    between atoms: _517  and  _520
REMARK  215  A    between atoms: _523  and  _525
REMARK  216  A    between atoms: _525  and  _526
REMARK  217  A    between atoms: _525  and  _528
REMARK  218  A    between atoms: _528  and  _529
REMARK  219  A    between atoms: _534  and  _536
REMARK  220  A    between atoms: _536  and  _537
REMARK  221  A    between atoms: _536  and  _539
REMARK  222  A    between atoms: _539  and  _540
REMARK  223  A    between atoms: _540  and  _541
REMARK  224  A    between atoms: _541  and  _542
REMARK  225  A    between atoms: _551  and  _553
REMARK  226  A    between atoms: _553  and  _554
REMARK  227  A    between atoms: _553  and  _556
REMARK  228  A    between atoms: _556  and  _557
REMARK  229  A    between atoms: _562  and  _564
REMARK  230  A    between atoms: _564  and  _565
REMARK  231  A    between atoms: _564  and  _567
REMARK  232  A    between atoms: _569  and  _571
REMARK  233  A    between atoms: _571  and  _572
REMARK  234  A    between atoms: _571  and  _574
REMARK  235  A    between atoms: _574  and  _575
REMARK  236  A    between atoms: _575  and  _576
REMARK  237  A    between atoms: _578  and  _580
REMARK  238  A    between atoms: _580  and  _581
REMARK  239  A    between atoms: _580  and  _583
REMARK  240  A    between atoms: _583  and  _584
REMARK  241  A    between atoms: _587  and  _589
REMARK  242  A    between atoms: _589  and  _590
REMARK  243  A    between atoms: _589  and  _592
REMARK  244  A    between atoms: _592  and  _593
REMARK  245  A    between atoms: _593  and  _594
REMARK  246  A    between atoms: _594  and  _595
REMARK  247  A    between atoms: _595  and  _596
REMARK  248  A    between atoms: _600  and  _602
REMARK  249  A    between atoms: _602  and  _603
REMARK  250  A    between atoms: _602  and  _605
REMARK  251  A    between atoms: _608  and  _610
REMARK  252  A    between atoms: _610  and  _611
REMARK  253  A    between atoms: _614  and  _616
REMARK  254  A    between atoms: _616  and  _617
REMARK  255  A    between atoms: _616  and  _619
REMARK  256  A    between atoms: _619  and  _620
REMARK  257  A    between atoms: _623  and  _625
REMARK  258  A    between atoms: _625  and  _626
REMARK  259  A    between atoms: _625  and  _628
REMARK  260  A    between atoms: _628  and  _629
REMARK  261  A    between atoms: _635  and  _637
REMARK  262  A    between atoms: _637  and  _638
REMARK                            x       y       z     vdW  Elec       q    Type
REMARK                         _______ _______ _______ _____ _____    ______ ____
ROOT
ATOM      1  O   HOH     1      15.851  -4.145  26.591  0.00  0.00    +0.000 OA
ENDROOT
TORSDOF 0
REMARK  Name = ../refined-set-2016/3u6i/3u6i_pocket.pdb
REMARK  262 active torsions:
REMARK  status: ('A' for Active; 'I' for Inactive)
REMARK    1  A    between atoms: _1  and  _3
REMARK    2  A    between atoms: _3  and  _4
REMARK    3  A    between atoms: _3  and  _6
REMARK    4  A    between atoms: _9  and  _11
REMARK    5  A    between atoms: _11  and  _12
REMARK    6  A    between atoms: _11  and  _14
REMARK    7  A    between atoms: _17  and  _19
REMARK    8  A    between atoms: _19  and  _20
REMARK    9  A    between atoms: _19  and  _22
REMARK   10  A    between atoms: _22  and  _23
REMARK   11  A    between atoms: _26  and  _28
REMARK   12  A    between atoms: _28  and  _29
REMARK   13  A    between atoms: _31  and  _33
REMARK   14  A    between atoms: _33  and  _34
REMARK   15  A    between atoms: _33  and  _36
REMARK   16  A    between atoms: _36  and  _37
REMARK   17  A    between atoms: _37  and  _38
REMARK   18  A    between atoms: _38  and  _39
REMARK   19  A    between atoms: _48  and  _50
REMARK   20  A    between atoms: _50  and  _51
REMARK   21  A    between atoms: _53  and  _55
REMARK   22  A    between atoms: _55  and  _56
REMARK   23  A    between atoms: _55  and  _58
REMARK   24  A    between atoms: _58  and  _59
REMARK   25  A    between atoms: _64  and  _66
REMARK   26  A    between atoms: _66  and  _67
REMARK   27  A    between atoms: _66  and  _69
REMARK   28  A    between atoms: _69  and  _70
REMARK   29  A    between atoms: _76  and  _78
REMARK   30  A    between atoms: _78  and  _79
REMARK   31  A    between atoms: _81  and  _83
REMARK   32  A    between atoms: _83  and  _84
REMARK   33  A    between atoms: _83  and  _86
REMARK   34  A    between atoms: _88  and  _90
REMARK   35  A    between atoms: _90  and  _91
REMARK   36  A    between atoms: _90  and  _93
REMARK   37  A    between atoms: _96  and  _98
REMARK   38  A    between atoms: _98  and  _99
REMARK   39  A    between atoms: _98  and  _101
REMARK   40  A    between atoms: _101  and  _102
REMARK   41  A    between atoms: _107  and  _108
REMARK   42  A    between atoms: _110  and  _112
REMARK   43  A    between atoms: _112  and  _113
REMARK   44  A    between atoms: _112  and  _115
REMARK   45  A    between atoms: _115  and  _116
REMARK   46  A    between atoms: _121  and  _123
REMARK   47  A    between atoms: _123  and  _124
REMARK   48  A    between atoms: _123  and  _126
REMARK   49  A    between atoms: _126  and  _127
REMARK   50  A    between atoms: _132  and  _134
REMARK   51  A    between atoms: _134  and  _135
REMARK   52  A    between atoms: _134  and  _137
REMARK   53  A    between atoms: _139  and  _141
REMARK   54  A    between atoms: _141  and  _142
REMARK   55  A    between atoms: _145  and  _147
REMARK   56  A    between atoms: _147  and  _148
REMARK   57  A    between atoms: _147  and  _150
REMARK   58  A    between atoms: _153  and  _155
REMARK   59  A    between atoms: _155  and  _156
REMARK   60  A    between atoms: _155  and  _158
REMARK   61  A    between atoms: _158  and  _159
REMARK   62  A    between atoms: _159  and  _160
REMARK   63  A    between atoms: _160  and  _161
REMARK   64  A    between atoms: _161  and  _162
REMARK   65  A    between atoms: _166  and  _168
REMARK   66  A    between atoms: _168  and  _169
REMARK   67  A    between atoms: _168  and  _171
REMARK   68  A    between atoms: _171  and  _172
REMARK   69  A    between atoms: _174  and  _176
REMARK   70  A    between atoms: _176  and  _177
REMARK   71  A    between atoms: _176  and  _179
REMARK   72  A    between atoms: _179  and  _180
REMARK   73  A    between atoms: _183  and  _185
REMARK   74  A    between atoms: _185  and  _186
REMARK   75  A    between atoms: _185  and  _188
REMARK   76  A    between atoms: _188  and  _189
REMARK   77  A    between atoms: _192  and  _194
REMARK   78  A    between atoms: _194  and  _195
REMARK   79  A    between atoms: _194  and  _197
REMARK   80  A    between atoms: _197  and  _198
REMARK   81  A    between atoms: _198  and  _199
REMARK   82  A    between atoms: _202  and  _204
REMARK   83  A    between atoms: _204  and  _205
REMARK   84  A    between atoms: _204  and  _207
REMARK   85  A    between atoms: _210  and  _212
REMARK   86  A    between atoms: _212  and  _213
REMARK   87  A    between atoms: _212  and  _215
REMARK   88  A    between atoms: _215  and  _216
REMARK   89  A    between atoms: _216  and  _217
REMARK   90  A    between atoms: _222  and  _224
REMARK   91  A    between atoms: _224  and  _225
REMARK   92  A    between atoms: _224  and  _227
REMARK   93  A    between atoms: _227  and  _228
REMARK   94  A    between atoms: _234  and  _236
REMARK   95  A    between atoms: _236  and  _237
REMARK   96  A    between atoms: _236  and  _239
REMARK   97  A    between atoms: _239  and  _240
REMARK   98  A    between atoms: _243  and  _245
REMARK   99  A    between atoms: _245  and  _246
REMARK  100  A    between atoms: _245  and  _248
REMARK  101  A    between atoms: _248  and  _249
REMARK  102  A    between atoms: _252  and  _254
REMARK  103  A    between atoms: _254  and  _255
REMARK  104  A    between atoms: _254  and  _257
REMARK  105  A    between atoms: _257  and  _258
REMARK  106  A    between atoms: _258  and  _259
REMARK  107  A    between atoms: _262  and  _264
REMARK  108  A    between atoms: _264  and  _265
REMARK  109  A    between atoms: _267  and  _269
REMARK  110  A    between atoms: _269  and  _270
REMARK  111  A    between atoms: _269  and  _272
REMARK  112  A    between atoms: _272  and  _273
REMARK  113  A    between atoms: _276  and  _278
REMARK  114  A    between atoms: _278  and  _279
REMARK  115  A    between atoms: _278  and  _281
REMARK  116  A    between atoms: _281  and  _282
REMARK  117  A    between atoms: _285  and  _287
REMARK  118  A    between atoms: _287  and  _288
REMARK  119  A    between atoms: _287  and  _290
REMARK  120  A    between atoms: _290  and  _291
REMARK  121  A    between atoms: _291  and  _292
REMARK  122  A    between atoms: _294  and  _296
REMARK  123  A    between atoms: _296  and  _297
REMARK  124  A    between atoms: _296  and  _299
REMARK  125  A    between atoms: _299  and  _300
REMARK  126  A    between atoms: _300  and  _301
REMARK  127  A    between atoms: _301  and  _302
REMARK  128  A    between atoms: _302  and  _303
REMARK  129  A    between atoms: _307  and  _309
REMARK  130  A    between atoms: _309  and  _310
REMARK  131  A    between atoms: _309  and  _312
REMARK  132  A    between atoms: _312  and  _313
REMARK  133  A    between atoms: _319  and  _321
REMARK  134  A    between atoms: _321  and  _322
REMARK  135  A    between atoms: _321  and  _324
REMARK  136  A    between atoms: _327  and  _329
REMARK  137  A    between atoms: _329  and  _330
REMARK  138  A    between atoms: _329  and  _332
REMARK  139  A    between atoms: _332  and  _333
REMARK  140  A    between atoms: _336  and  _338
REMARK  141  A    between atoms: _338  and  _339
REMARK  142  A    between atoms: _338  and  _341
REMARK  143  A    between atoms: _341  and  _342
REMARK  144  A    between atoms: _344  and  _346
REMARK  145  A    between atoms: _346  and  _347
REMARK  146  A    between atoms: _346  and  _349
REMARK  147  A    between atoms: _349  and  _350
REMARK  148  A    between atoms: _353  and  _355
REMARK  149  A    between atoms: _355  and  _356
REMARK  150  A    between atoms: _358  and  _360
REMARK  151  A    between atoms: _360  and  _361
REMARK  152  A    between atoms: _360  and  _363
REMARK  153  A    between atoms: _363  and  _364
REMARK  154  A    between atoms: _367  and  _369
REMARK  155  A    between atoms: _369  and  _370
REMARK  156  A    between atoms: _369  and  _372
REMARK  157  A    between atoms: _375  and  _376
REMARK  158  A    between atoms: _381  and  _383
REMARK  159  A    between atoms: _383  and  _384
REMARK  160  A    between atoms: _383  and  _386
REMARK  161  A    between atoms: _386  and  _387
REMARK  162  A    between atoms: _390  and  _392
REMARK  163  A    between atoms: _392  and  _393
REMARK  164  A    between atoms: _392  and  _395
REMARK  165  A    between atoms: _398  and  _400
REMARK  166  A    between atoms: _400  and  _401
REMARK  167  A    between atoms: _400  and  _403
REMARK  168  A    between atoms: _406  and  _408
REMARK  169  A    between atoms: _408  and  _409
REMARK  170  A    between atoms: _408  and  _411
REMARK  171  A    between atoms: _411  and  _412
REMARK  172  A    between atoms: _416  and  _417
REMARK  173  A    between atoms: _422  and  _424
REMARK  174  A    between atoms: _424  and  _425
REMARK  175  A    between atoms: _424  and  _427
REMARK  176  A    between atoms: _427  and  _428
REMARK  177  A    between atoms: _433  and  _434
REMARK  178  A    between atoms: _436  and  _438
REMARK  179  A    between atoms: _438  and  _439
REMARK  180  A    between atoms: _438  and  _441
REMARK  181  A    between atoms: _441  and  _442
REMARK  182  A    between atoms: _442  and  _443
REMARK  183  A    between atoms: _445  and  _447
REMARK  184  A    between atoms: _447  and  _448
REMARK  185  A    between atoms: _447  and  _450
REMARK  186  A    between atoms: _450  and  _451
REMARK  187  A    between atoms: _451  and  _452
REMARK  188  A    between atoms: _452  and  _453
REMARK  189  A    between atoms: _453  and  _454
REMARK  190  A    between atoms: _458  and  _460
REMARK  191  A    between atoms: _460  and  _461
REMARK  192  A    between atoms: _460  and  _463
REMARK  193  A    between atoms: _463  and  _464
REMARK  194  A    between atoms: _469  and  _471
REMARK  195  A    between atoms: _471  and  _472
REMARK  196  A    between atoms: _474  and  _476
REMARK  197  A    between atoms: _476  and  _477
REMARK  198  A    between atoms: _476  and  _479
REMARK  199  A    between atoms: _479  and  _480
REMARK  200  A    between atoms: _483  and  _485
REMARK  201  A    between atoms: _485  and  _486
REMARK  202  A    between atoms: _485  and  _488
REMARK  203  A    between atoms: _488  and  _489
REMARK  204  A    between atoms: _494  and  _496
REMARK  205  A    between atoms: _496  and  _497
REMARK  206  A    between atoms: _496  and  _499
REMARK  207  A    between atoms: _499  and  _500
REMARK  208  A    between atoms: _503  and  _505
REMARK  209  A    between atoms: _505  and  _506
REMARK  210  A    between atoms: _505  and  _508
REMARK  211  A    between atoms: _508  and  _509
REMARK  212  A    between atoms: _515  and  _517
REMARK  213  A    between atoms: _517  and  _518
REMARK  214  A    between atoms: _517  and  _520
REMARK  215  A    between atoms: _523  and  _525
REMARK  216  A    between atoms: _525  and  _526
REMARK  217  A    between atoms: _525  and  _528
REMARK  218  A    between atoms: _528  and  _529
REMARK  219  A    between atoms: _534  and  _536
REMARK  220  A    between atoms: _536  and  _537
REMARK  221  A    between atoms: _536  and  _539
REMARK  222  A    between atoms: _539  and  _540
REMARK  223  A    between atoms: _540  and  _541
REMARK  224  A    between atoms: _541  and  _542
REMARK  225  A    between atoms: _551  and  _553
REMARK  226  A    between atoms: _553  and  _554
REMARK  227  A    between atoms: _553  and  _556
REMARK  228  A    between atoms: _556  and  _557
REMARK  229  A    between atoms: _562  and  _564
REMARK  230  A    between atoms: _564  and  _565
REMARK  231  A    between atoms: _564  and  _567
REMARK  232  A    between atoms: _569  and  _571
REMARK  233  A    between atoms: _571  and  _572
REMARK  234  A    between atoms: _571  and  _574
REMARK  235  A    between atoms: _574  and  _575
REMARK  236  A    between atoms: _575  and  _576
REMARK  237  A    between atoms: _578  and  _580
REMARK  238  A    between atoms: _580  and  _581
REMARK  239  A    between atoms: _580  and  _583
REMARK  240  A    between atoms: _583  and  _584
REMARK  241  A    between atoms: _587  and  _589
REMARK  242  A    between atoms: _589  and  _590
REMARK  243  A    between atoms: _589  and  _592
REMARK  244  A    between atoms: _592  and  _593
REMARK  245  A    between atoms: _593  and  _594
REMARK  246  A    between atoms: _594  and  _595
REMARK  247  A    between atoms: _595  and  _596
REMARK  248  A    between atoms: _600  and  _602
REMARK  249  A    between atoms: _602  and  _603
REMARK  250  A    between atoms: _602  and  _605
REMARK  251  A    between atoms: _608  and  _610
REMARK  252  A    between atoms: _610  and  _611
REMARK  253  A    between atoms: _614  and  _616
REMARK  254  A    between atoms: _616  and  _617
REMARK  255  A    between atoms: _616  and  _619
REMARK  256  A    between atoms: _619  and  _620
REMARK  257  A    between atoms: _623  and  _625
REMARK  258  A    between atoms: _625  and  _626
REMARK  259  A    between atoms: _625  and  _628
REMARK  260  A    between atoms: _628  and  _629
REMARK  261  A    between atoms: _635  and  _637
REMARK  262  A    between atoms: _637  and  _638
REMARK                            x       y       z     vdW  Elec       q    Type
REMARK                         _______ _______ _______ _____ _____    ______ ____
ROOT
ATOM      1  O   HOH     1      14.256  -2.411  20.160  0.00  0.00    +0.000 OA
ENDROOT
TORSDOF 0
REMARK  Name = ../refined-set-2016/3u6i/3u6i_pocket.pdb
REMARK  262 active torsions:
REMARK  status: ('A' for Active; 'I' for Inactive)
REMARK    1  A    between atoms: _1  and  _3
REMARK    2  A    between atoms: _3  and  _4
REMARK    3  A    between atoms: _3  and  _6
REMARK    4  A    between atoms: _9  and  _11
REMARK    5  A    between atoms: _11  and  _12
REMARK    6  A    between atoms: _11  and  _14
REMARK    7  A    between atoms: _17  and  _19
REMARK    8  A    between atoms: _19  and  _20
REMARK    9  A    between atoms: _19  and  _22
REMARK   10  A    between atoms: _22  and  _23
REMARK   11  A    between atoms: _26  and  _28
REMARK   12  A    between atoms: _28  and  _29
REMARK   13  A    between atoms: _31  and  _33
REMARK   14  A    between atoms: _33  and  _34
REMARK   15  A    between atoms: _33  and  _36
REMARK   16  A    between atoms: _36  and  _37
REMARK   17  A    between atoms: _37  and  _38
REMARK   18  A    between atoms: _38  and  _39
REMARK   19  A    between atoms: _48  and  _50
REMARK   20  A    between atoms: _50  and  _51
REMARK   21  A    between atoms: _53  and  _55
REMARK   22  A    between atoms: _55  and  _56
REMARK   23  A    between atoms: _55  and  _58
REMARK   24  A    between atoms: _58  and  _59
REMARK   25  A    between atoms: _64  and  _66
REMARK   26  A    between atoms: _66  and  _67
REMARK   27  A    between atoms: _66  and  _69
REMARK   28  A    between atoms: _69  and  _70
REMARK   29  A    between atoms: _76  and  _78
REMARK   30  A    between atoms: _78  and  _79
REMARK   31  A    between atoms: _81  and  _83
REMARK   32  A    between atoms: _83  and  _84
REMARK   33  A    between atoms: _83  and  _86
REMARK   34  A    between atoms: _88  and  _90
REMARK   35  A    between atoms: _90  and  _91
REMARK   36  A    between atoms: _90  and  _93
REMARK   37  A    between atoms: _96  and  _98
REMARK   38  A    between atoms: _98  and  _99
REMARK   39  A    between atoms: _98  and  _101
REMARK   40  A    between atoms: _101  and  _102
REMARK   41  A    between atoms: _107  and  _108
REMARK   42  A    between atoms: _110  and  _112
REMARK   43  A    between atoms: _112  and  _113
REMARK   44  A    between atoms: _112  and  _115
REMARK   45  A    between atoms: _115  and  _116
REMARK   46  A    between atoms: _121  and  _123
REMARK   47  A    between atoms: _123  and  _124
REMARK   48  A    between atoms: _123  and  _126
REMARK   49  A    between atoms: _126  and  _127
REMARK   50  A    between atoms: _132  and  _134
REMARK   51  A    between atoms: _134  and  _135
REMARK   52  A    between atoms: _134  and  _137
REMARK   53  A    between atoms: _139  and  _141
REMARK   54  A    between atoms: _141  and  _142
REMARK   55  A    between atoms: _145  and  _147
REMARK   56  A    between atoms: _147  and  _148
REMARK   57  A    between atoms: _147  and  _150
REMARK   58  A    between atoms: _153  and  _155
REMARK   59  A    between atoms: _155  and  _156
REMARK   60  A    between atoms: _155  and  _158
REMARK   61  A    between atoms: _158  and  _159
REMARK   62  A    between atoms: _159  and  _160
REMARK   63  A    between atoms: _160  and  _161
REMARK   64  A    between atoms: _161  and  _162
REMARK   65  A    between atoms: _166  and  _168
REMARK   66  A    between atoms: _168  and  _169
REMARK   67  A    between atoms: _168  and  _171
REMARK   68  A    between atoms: _171  and  _172
REMARK   69  A    between atoms: _174  and  _176
REMARK   70  A    between atoms: _176  and  _177
REMARK   71  A    between atoms: _176  and  _179
REMARK   72  A    between atoms: _179  and  _180
REMARK   73  A    between atoms: _183  and  _185
REMARK   74  A    between atoms: _185  and  _186
REMARK   75  A    between atoms: _185  and  _188
REMARK   76  A    between atoms: _188  and  _189
REMARK   77  A    between atoms: _192  and  _194
REMARK   78  A    between atoms: _194  and  _195
REMARK   79  A    between atoms: _194  and  _197
REMARK   80  A    between atoms: _197  and  _198
REMARK   81  A    between atoms: _198  and  _199
REMARK   82  A    between atoms: _202  and  _204
REMARK   83  A    between atoms: _204  and  _205
REMARK   84  A    between atoms: _204  and  _207
REMARK   85  A    between atoms: _210  and  _212
REMARK   86  A    between atoms: _212  and  _213
REMARK   87  A    between atoms: _212  and  _215
REMARK   88  A    between atoms: _215  and  _216
REMARK   89  A    between atoms: _216  and  _217
REMARK   90  A    between atoms: _222  and  _224
REMARK   91  A    between atoms: _224  and  _225
REMARK   92  A    between atoms: _224  and  _227
REMARK   93  A    between atoms: _227  and  _228
REMARK   94  A    between atoms: _234  and  _236
REMARK   95  A    between atoms: _236  and  _237
REMARK   96  A    between atoms: _236  and  _239
REMARK   97  A    between atoms: _239  and  _240
REMARK   98  A    between atoms: _243  and  _245
REMARK   99  A    between atoms: _245  and  _246
REMARK  100  A    between atoms: _245  and  _248
REMARK  101  A    between atoms: _248  and  _249
REMARK  102  A    between atoms: _252  and  _254
REMARK  103  A    between atoms: _254  and  _255
REMARK  104  A    between atoms: _254  and  _257
REMARK  105  A    between atoms: _257  and  _258
REMARK  106  A    between atoms: _258  and  _259
REMARK  107  A    between atoms: _262  and  _264
REMARK  108  A    between atoms: _264  and  _265
REMARK  109  A    between atoms: _267  and  _269
REMARK  110  A    between atoms: _269  and  _270
REMARK  111  A    between atoms: _269  and  _272
REMARK  112  A    between atoms: _272  and  _273
REMARK  113  A    between atoms: _276  and  _278
REMARK  114  A    between atoms: _278  and  _279
REMARK  115  A    between atoms: _278  and  _281
REMARK  116  A    between atoms: _281  and  _282
REMARK  117  A    between atoms: _285  and  _287
REMARK  118  A    between atoms: _287  and  _288
REMARK  119  A    between atoms: _287  and  _290
REMARK  120  A    between atoms: _290  and  _291
REMARK  121  A    between atoms: _291  and  _292
REMARK  122  A    between atoms: _294  and  _296
REMARK  123  A    between atoms: _296  and  _297
REMARK  124  A    between atoms: _296  and  _299
REMARK  125  A    between atoms: _299  and  _300
REMARK  126  A    between atoms: _300  and  _301
REMARK  127  A    between atoms: _301  and  _302
REMARK  128  A    between atoms: _302  and  _303
REMARK  129  A    between atoms: _307  and  _309
REMARK  130  A    between atoms: _309  and  _310
REMARK  131  A    between atoms: _309  and  _312
REMARK  132  A    between atoms: _312  and  _313
REMARK  133  A    between atoms: _319  and  _321
REMARK  134  A    between atoms: _321  and  _322
REMARK  135  A    between atoms: _321  and  _324
REMARK  136  A    between atoms: _327  and  _329
REMARK  137  A    between atoms: _329  and  _330
REMARK  138  A    between atoms: _329  and  _332
REMARK  139  A    between atoms: _332  and  _333
REMARK  140  A    between atoms: _336  and  _338
REMARK  141  A    between atoms: _338  and  _339
REMARK  142  A    between atoms: _338  and  _341
REMARK  143  A    between atoms: _341  and  _342
REMARK  144  A    between atoms: _344  and  _346
REMARK  145  A    between atoms: _346  and  _347
REMARK  146  A    between atoms: _346  and  _349
REMARK  147  A    between atoms: _349  and  _350
REMARK  148  A    between atoms: _353  and  _355
REMARK  149  A    between atoms: _355  and  _356
REMARK  150  A    between atoms: _358  and  _360
REMARK  151  A    between atoms: _360  and  _361
REMARK  152  A    between atoms: _360  and  _363
REMARK  153  A    between atoms: _363  and  _364
REMARK  154  A    between atoms: _367  and  _369
REMARK  155  A    between atoms: _369  and  _370
REMARK  156  A    between atoms: _369  and  _372
REMARK  157  A    between atoms: _375  and  _376
REMARK  158  A    between atoms: _381  and  _383
REMARK  159  A    between atoms: _383  and  _384
REMARK  160  A    between atoms: _383  and  _386
REMARK  161  A    between atoms: _386  and  _387
REMARK  162  A    between atoms: _390  and  _392
REMARK  163  A    between atoms: _392  and  _393
REMARK  164  A    between atoms: _392  and  _395
REMARK  165  A    between atoms: _398  and  _400
REMARK  166  A    between atoms: _400  and  _401
REMARK  167  A    between atoms: _400  and  _403
REMARK  168  A    between atoms: _406  and  _408
REMARK  169  A    between atoms: _408  and  _409
REMARK  170  A    between atoms: _408  and  _411
REMARK  171  A    between atoms: _411  and  _412
REMARK  172  A    between atoms: _416  and  _417
REMARK  173  A    between atoms: _422  and  _424
REMARK  174  A    between atoms: _424  and  _425
REMARK  175  A    between atoms: _424  and  _427
REMARK  176  A    between atoms: _427  and  _428
REMARK  177  A    between atoms: _433  and  _434
REMARK  178  A    between atoms: _436  and  _438
REMARK  179  A    between atoms: _438  and  _439
REMARK  180  A    between atoms: _438  and  _441
REMARK  181  A    between atoms: _441  and  _442
REMARK  182  A    between atoms: _442  and  _443
REMARK  183  A    between atoms: _445  and  _447
REMARK  184  A    between atoms: _447  and  _448
REMARK  185  A    between atoms: _447  and  _450
REMARK  186  A    between atoms: _450  and  _451
REMARK  187  A    between atoms: _451  and  _452
REMARK  188  A    between atoms: _452  and  _453
REMARK  189  A    between atoms: _453  and  _454
REMARK  190  A    between atoms: _458  and  _460
REMARK  191  A    between atoms: _460  and  _461
REMARK  192  A    between atoms: _460  and  _463
REMARK  193  A    between atoms: _463  and  _464
REMARK  194  A    between atoms: _469  and  _471
REMARK  195  A    between atoms: _471  and  _472
REMARK  196  A    between atoms: _474  and  _476
REMARK  197  A    between atoms: _476  and  _477
REMARK  198  A    between atoms: _476  and  _479
REMARK  199  A    between atoms: _479  and  _480
REMARK  200  A    between atoms: _483  and  _485
REMARK  201  A    between atoms: _485  and  _486
REMARK  202  A    between atoms: _485  and  _488
REMARK  203  A    between atoms: _488  and  _489
REMARK  204  A    between atoms: _494  and  _496
REMARK  205  A    between atoms: _496  and  _497
REMARK  206  A    between atoms: _496  and  _499
REMARK  207  A    between atoms: _499  and  _500
REMARK  208  A    between atoms: _503  and  _505
REMARK  209  A    between atoms: _505  and  _506
REMARK  210  A    between atoms: _505  and  _508
REMARK  211  A    between atoms: _508  and  _509
REMARK  212  A    between atoms: _515  and  _517
REMARK  213  A    between atoms: _517  and  _518
REMARK  214  A    between atoms: _517  and  _520
REMARK  215  A    between atoms: _523  and  _525
REMARK  216  A    between atoms: _525  and  _526
REMARK  217  A    between atoms: _525  and  _528
REMARK  218  A    between atoms: _528  and  _529
REMARK  219  A    between atoms: _534  and  _536
REMARK  220  A    between atoms: _536  and  _537
REMARK  221  A    between atoms: _536  and  _539
REMARK  222  A    between atoms: _539  and  _540
REMARK  223  A    between atoms: _540  and  _541
REMARK  224  A    between atoms: _541  and  _542
REMARK  225  A    between atoms: _551  and  _553
REMARK  226  A    between atoms: _553  and  _554
REMARK  227  A    between atoms: _553  and  _556
REMARK  228  A    between atoms: _556  and  _557
REMARK  229  A    between atoms: _562  and  _564
REMARK  230  A    between atoms: _564  and  _565
REMARK  231  A    between atoms: _564  and  _567
REMARK  232  A    between atoms: _569  and  _571
REMARK  233  A    between atoms: _571  and  _572
REMARK  234  A    between atoms: _571  and  _574
REMARK  235  A    between atoms: _574  and  _575
REMARK  236  A    between atoms: _575  and  _576
REMARK  237  A    between atoms: _578  and  _580
REMARK  238  A    between atoms: _580  and  _581
REMARK  239  A    between atoms: _580  and  _583
REMARK  240  A    between atoms: _583  and  _584
REMARK  241  A    between atoms: _587  and  _589
REMARK  242  A    between atoms: _589  and  _590
REMARK  243  A    between atoms: _589  and  _592
REMARK  244  A    between atoms: _592  and  _593
REMARK  245  A    between atoms: _593  and  _594
REMARK  246  A    between atoms: _594  and  _595
REMARK  247  A    between atoms: _595  and  _596
REMARK  248  A    between atoms: _600  and  _602
REMARK  249  A    between atoms: _602  and  _603
REMARK  250  A    between atoms: _602  and  _605
REMARK  251  A    between atoms: _608  and  _610
REMARK  252  A    between atoms: _610  and  _611
REMARK  253  A    between atoms: _614  and  _616
REMARK  254  A    between atoms: _616  and  _617
REMARK  255  A    between atoms: _616  and  _619
REMARK  256  A    between atoms: _619  and  _620
REMARK  257  A    between atoms: _623  and  _625
REMARK  258  A    between atoms: _625  and  _626
REMARK  259  A    between atoms: _625  and  _628
REMARK  260  A    between atoms: _628  and  _629
REMARK  261  A    between atoms: _635  and  _637
REMARK  262  A    between atoms: _637  and  _638
REMARK                            x       y       z     vdW  Elec       q    Type
REMARK                         _______ _______ _______ _____ _____    ______ ____
ROOT
ATOM      1  O   HOH     1      19.730  -4.370  14.504  0.00  0.00    +0.000 OA
ENDROOT
TORSDOF 0
REMARK  Name = ../refined-set-2016/3u6i/3u6i_pocket.pdb
REMARK  262 active torsions:
REMARK  status: ('A' for Active; 'I' for Inactive)
REMARK    1  A    between atoms: _1  and  _3
REMARK    2  A    between atoms: _3  and  _4
REMARK    3  A    between atoms: _3  and  _6
REMARK    4  A    between atoms: _9  and  _11
REMARK    5  A    between atoms: _11  and  _12
REMARK    6  A    between atoms: _11  and  _14
REMARK    7  A    between atoms: _17  and  _19
REMARK    8  A    between atoms: _19  and  _20
REMARK    9  A    between atoms: _19  and  _22
REMARK   10  A    between atoms: _22  and  _23
REMARK   11  A    between atoms: _26  and  _28
REMARK   12  A    between atoms: _28  and  _29
REMARK   13  A    between atoms: _31  and  _33
REMARK   14  A    between atoms: _33  and  _34
REMARK   15  A    between atoms: _33  and  _36
REMARK   16  A    between atoms: _36  and  _37
REMARK   17  A    between atoms: _37  and  _38
REMARK   18  A    between atoms: _38  and  _39
REMARK   19  A    between atoms: _48  and  _50
REMARK   20  A    between atoms: _50  and  _51
REMARK   21  A    between atoms: _53  and  _55
REMARK   22  A    between atoms: _55  and  _56
REMARK   23  A    between atoms: _55  and  _58
REMARK   24  A    between atoms: _58  and  _59
REMARK   25  A    between atoms: _64  and  _66
REMARK   26  A    between atoms: _66  and  _67
REMARK   27  A    between atoms: _66  and  _69
REMARK   28  A    between atoms: _69  and  _70
REMARK   29  A    between atoms: _76  and  _78
REMARK   30  A    between atoms: _78  and  _79
REMARK   31  A    between atoms: _81  and  _83
REMARK   32  A    between atoms: _83  and  _84
REMARK   33  A    between atoms: _83  and  _86
REMARK   34  A    between atoms: _88  and  _90
REMARK   35  A    between atoms: _90  and  _91
REMARK   36  A    between atoms: _90  and  _93
REMARK   37  A    between atoms: _96  and  _98
REMARK   38  A    between atoms: _98  and  _99
REMARK   39  A    between atoms: _98  and  _101
REMARK   40  A    between atoms: _101  and  _102
REMARK   41  A    between atoms: _107  and  _108
REMARK   42  A    between atoms: _110  and  _112
REMARK   43  A    between atoms: _112  and  _113
REMARK   44  A    between atoms: _112  and  _115
REMARK   45  A    between atoms: _115  and  _116
REMARK   46  A    between atoms: _121  and  _123
REMARK   47  A    between atoms: _123  and  _124
REMARK   48  A    between atoms: _123  and  _126
REMARK   49  A    between atoms: _126  and  _127
REMARK   50  A    between atoms: _132  and  _134
REMARK   51  A    between atoms: _134  and  _135
REMARK   52  A    between atoms: _134  and  _137
REMARK   53  A    between atoms: _139  and  _141
REMARK   54  A    between atoms: _141  and  _142
REMARK   55  A    between atoms: _145  and  _147
REMARK   56  A    between atoms: _147  and  _148
REMARK   57  A    between atoms: _147  and  _150
REMARK   58  A    between atoms: _153  and  _155
REMARK   59  A    between atoms: _155  and  _156
REMARK   60  A    between atoms: _155  and  _158
REMARK   61  A    between atoms: _158  and  _159
REMARK   62  A    between atoms: _159  and  _160
REMARK   63  A    between atoms: _160  and  _161
REMARK   64  A    between atoms: _161  and  _162
REMARK   65  A    between atoms: _166  and  _168
REMARK   66  A    between atoms: _168  and  _169
REMARK   67  A    between atoms: _168  and  _171
REMARK   68  A    between atoms: _171  and  _172
REMARK   69  A    between atoms: _174  and  _176
REMARK   70  A    between atoms: _176  and  _177
REMARK   71  A    between atoms: _176  and  _179
REMARK   72  A    between atoms: _179  and  _180
REMARK   73  A    between atoms: _183  and  _185
REMARK   74  A    between atoms: _185  and  _186
REMARK   75  A    between atoms: _185  and  _188
REMARK   76  A    between atoms: _188  and  _189
REMARK   77  A    between atoms: _192  and  _194
REMARK   78  A    between atoms: _194  and  _195
REMARK   79  A    between atoms: _194  and  _197
REMARK   80  A    between atoms: _197  and  _198
REMARK   81  A    between atoms: _198  and  _199
REMARK   82  A    between atoms: _202  and  _204
REMARK   83  A    between atoms: _204  and  _205
REMARK   84  A    between atoms: _204  and  _207
REMARK   85  A    between atoms: _210  and  _212
REMARK   86  A    between atoms: _212  and  _213
REMARK   87  A    between atoms: _212  and  _215
REMARK   88  A    between atoms: _215  and  _216
REMARK   89  A    between atoms: _216  and  _217
REMARK   90  A    between atoms: _222  and  _224
REMARK   91  A    between atoms: _224  and  _225
REMARK   92  A    between atoms: _224  and  _227
REMARK   93  A    between atoms: _227  and  _228
REMARK   94  A    between atoms: _234  and  _236
REMARK   95  A    between atoms: _236  and  _237
REMARK   96  A    between atoms: _236  and  _239
REMARK   97  A    between atoms: _239  and  _240
REMARK   98  A    between atoms: _243  and  _245
REMARK   99  A    between atoms: _245  and  _246
REMARK  100  A    between atoms: _245  and  _248
REMARK  101  A    between atoms: _248  and  _249
REMARK  102  A    between atoms: _252  and  _254
REMARK  103  A    between atoms: _254  and  _255
REMARK  104  A    between atoms: _254  and  _257
REMARK  105  A    between atoms: _257  and  _258
REMARK  106  A    between atoms: _258  and  _259
REMARK  107  A    between atoms: _262  and  _264
REMARK  108  A    between atoms: _264  and  _265
REMARK  109  A    between atoms: _267  and  _269
REMARK  110  A    between atoms: _269  and  _270
REMARK  111  A    between atoms: _269  and  _272
REMARK  112  A    between atoms: _272  and  _273
REMARK  113  A    between atoms: _276  and  _278
REMARK  114  A    between atoms: _278  and  _279
REMARK  115  A    between atoms: _278  and  _281
REMARK  116  A    between atoms: _281  and  _282
REMARK  117  A    between atoms: _285  and  _287
REMARK  118  A    between atoms: _287  and  _288
REMARK  119  A    between atoms: _287  and  _290
REMARK  120  A    between atoms: _290  and  _291
REMARK  121  A    between atoms: _291  and  _292
REMARK  122  A    between atoms: _294  and  _296
REMARK  123  A    between atoms: _296  and  _297
REMARK  124  A    between atoms: _296  and  _299
REMARK  125  A    between atoms: _299  and  _300
REMARK  126  A    between atoms: _300  and  _301
REMARK  127  A    between atoms: _301  and  _302
REMARK  128  A    between atoms: _302  and  _303
REMARK  129  A    between atoms: _307  and  _309
REMARK  130  A    between atoms: _309  and  _310
REMARK  131  A    between atoms: _309  and  _312
REMARK  132  A    between atoms: _312  and  _313
REMARK  133  A    between atoms: _319  and  _321
REMARK  134  A    between atoms: _321  and  _322
REMARK  135  A    between atoms: _321  and  _324
REMARK  136  A    between atoms: _327  and  _329
REMARK  137  A    between atoms: _329  and  _330
REMARK  138  A    between atoms: _329  and  _332
REMARK  139  A    between atoms: _332  and  _333
REMARK  140  A    between atoms: _336  and  _338
REMARK  141  A    between atoms: _338  and  _339
REMARK  142  A    between atoms: _338  and  _341
REMARK  143  A    between atoms: _341  and  _342
REMARK  144  A    between atoms: _344  and  _346
REMARK  145  A    between atoms: _346  and  _347
REMARK  146  A    between atoms: _346  and  _349
REMARK  147  A    between atoms: _349  and  _350
REMARK  148  A    between atoms: _353  and  _355
REMARK  149  A    between atoms: _355  and  _356
REMARK  150  A    between atoms: _358  and  _360
REMARK  151  A    between atoms: _360  and  _361
REMARK  152  A    between atoms: _360  and  _363
REMARK  153  A    between atoms: _363  and  _364
REMARK  154  A    between atoms: _367  and  _369
REMARK  155  A    between atoms: _369  and  _370
REMARK  156  A    between atoms: _369  and  _372
REMARK  157  A    between atoms: _375  and  _376
REMARK  158  A    between atoms: _381  and  _383
REMARK  159  A    between atoms: _383  and  _384
REMARK  160  A    between atoms: _383  and  _386
REMARK  161  A    between atoms: _386  and  _387
REMARK  162  A    between atoms: _390  and  _392
REMARK  163  A    between atoms: _392  and  _393
REMARK  164  A    between atoms: _392  and  _395
REMARK  165  A    between atoms: _398  and  _400
REMARK  166  A    between atoms: _400  and  _401
REMARK  167  A    between atoms: _400  and  _403
REMARK  168  A    between atoms: _406  and  _408
REMARK  169  A    between atoms: _408  and  _409
REMARK  170  A    between atoms: _408  and  _411
REMARK  171  A    between atoms: _411  and  _412
REMARK  172  A    between atoms: _416  and  _417
REMARK  173  A    between atoms: _422  and  _424
REMARK  174  A    between atoms: _424  and  _425
REMARK  175  A    between atoms: _424  and  _427
REMARK  176  A    between atoms: _427  and  _428
REMARK  177  A    between atoms: _433  and  _434
REMARK  178  A    between atoms: _436  and  _438
REMARK  179  A    between atoms: _438  and  _439
REMARK  180  A    between atoms: _438  and  _441
REMARK  181  A    between atoms: _441  and  _442
REMARK  182  A    between atoms: _442  and  _443
REMARK  183  A    between atoms: _445  and  _447
REMARK  184  A    between atoms: _447  and  _448
REMARK  185  A    between atoms: _447  and  _450
REMARK  186  A    between atoms: _450  and  _451
REMARK  187  A    between atoms: _451  and  _452
REMARK  188  A    between atoms: _452  and  _453
REMARK  189  A    between atoms: _453  and  _454
REMARK  190  A    between atoms: _458  and  _460
REMARK  191  A    between atoms: _460  and  _461
REMARK  192  A    between atoms: _460  and  _463
REMARK  193  A    between atoms: _463  and  _464
REMARK  194  A    between atoms: _469  and  _471
REMARK  195  A    between atoms: _471  and  _472
REMARK  196  A    between atoms: _474  and  _476
REMARK  197  A    between atoms: _476  and  _477
REMARK  198  A    between atoms: _476  and  _479
REMARK  199  A    between atoms: _479  and  _480
REMARK  200  A    between atoms: _483  and  _485
REMARK  201  A    between atoms: _485  and  _486
REMARK  202  A    between atoms: _485  and  _488
REMARK  203  A    between atoms: _488  and  _489
REMARK  204  A    between atoms: _494  and  _496
REMARK  205  A    between atoms: _496  and  _497
REMARK  206  A    between atoms: _496  and  _499
REMARK  207  A    between atoms: _499  and  _500
REMARK  208  A    between atoms: _503  and  _505
REMARK  209  A    between atoms: _505  and  _506
REMARK  210  A    between atoms: _505  and  _508
REMARK  211  A    between atoms: _508  and  _509
REMARK  212  A    between atoms: _515  and  _517
REMARK  213  A    between atoms: _517  and  _518
REMARK  214  A    between atoms: _517  and  _520
REMARK  215  A    between atoms: _523  and  _525
REMARK  216  A    between atoms: _525  and  _526
REMARK  217  A    between atoms: _525  and  _528
REMARK  218  A    between atoms: _528  and  _529
REMARK  219  A    between atoms: _534  and  _536
REMARK  220  A    between atoms: _536  and  _537
REMARK  221  A    between atoms: _536  and  _539
REMARK  222  A    between atoms: _539  and  _540
REMARK  223  A    between atoms: _540  and  _541
REMARK  224  A    between atoms: _541  and  _542
REMARK  225  A    between atoms: _551  and  _553
REMARK  226  A    between atoms: _553  and  _554
REMARK  227  A    between atoms: _553  and  _556
REMARK  228  A    between atoms: _556  and  _557
REMARK  229  A    between atoms: _562  and  _564
REMARK  230  A    between atoms: _564  and  _565
REMARK  231  A    between atoms: _564  and  _567
REMARK  232  A    between atoms: _569  and  _571
REMARK  233  A    between atoms: _571  and  _572
REMARK  234  A    between atoms: _571  and  _574
REMARK  235  A    between atoms: _574  and  _575
REMARK  236  A    between atoms: _575  and  _576
REMARK  237  A    between atoms: _578  and  _580
REMARK  238  A    between atoms: _580  and  _581
REMARK  239  A    between atoms: _580  and  _583
REMARK  240  A    between atoms: _583  and  _584
REMARK  241  A    between atoms: _587  and  _589
REMARK  242  A    between atoms: _589  and  _590
REMARK  243  A    between atoms: _589  and  _592
REMARK  244  A    between atoms: _592  and  _593
REMARK  245  A    between atoms: _593  and  _594
REMARK  246  A    between atoms: _594  and  _595
REMARK  247  A    between atoms: _595  and  _596
REMARK  248  A    between atoms: _600  and  _602
REMARK  249  A    between atoms: _602  and  _603
REMARK  250  A    between atoms: _602  and  _605
REMARK  251  A    between atoms: _608  and  _610
REMARK  252  A    between atoms: _610  and  _611
REMARK  253  A    between atoms: _614  and  _616
REMARK  254  A    between atoms: _616  and  _617
REMARK  255  A    between atoms: _616  and  _619
REMARK  256  A    between atoms: _619  and  _620
REMARK  257  A    between atoms: _623  and  _625
REMARK  258  A    between atoms: _625  and  _626
REMARK  259  A    between atoms: _625  and  _628
REMARK  260  A    between atoms: _628  and  _629
REMARK  261  A    between atoms: _635  and  _637
REMARK  262  A    between atoms: _637  and  _638
REMARK                            x       y       z     vdW  Elec       q    Type
REMARK                         _______ _______ _______ _____ _____    ______ ____
ROOT
ATOM      1  O   HOH     1      23.798  -9.706  32.373  0.00  0.00    +0.000 OA
ENDROOT
TORSDOF 0
REMARK  Name = ../refined-set-2016/3u6i/3u6i_pocket.pdb
REMARK  262 active torsions:
REMARK  status: ('A' for Active; 'I' for Inactive)
REMARK    1  A    between atoms: _1  and  _3
REMARK    2  A    between atoms: _3  and  _4
REMARK    3  A    between atoms: _3  and  _6
REMARK    4  A    between atoms: _9  and  _11
REMARK    5  A    between atoms: _11  and  _12
REMARK    6  A    between atoms: _11  and  _14
REMARK    7  A    between atoms: _17  and  _19
REMARK    8  A    between atoms: _19  and  _20
REMARK    9  A    between atoms: _19  and  _22
REMARK   10  A    between atoms: _22  and  _23
REMARK   11  A    between atoms: _26  and  _28
REMARK   12  A    between atoms: _28  and  _29
REMARK   13  A    between atoms: _31  and  _33
REMARK   14  A    between atoms: _33  and  _34
REMARK   15  A    between atoms: _33  and  _36
REMARK   16  A    between atoms: _36  and  _37
REMARK   17  A    between atoms: _37  and  _38
REMARK   18  A    between atoms: _38  and  _39
REMARK   19  A    between atoms: _48  and  _50
REMARK   20  A    between atoms: _50  and  _51
REMARK   21  A    between atoms: _53  and  _55
REMARK   22  A    between atoms: _55  and  _56
REMARK   23  A    between atoms: _55  and  _58
REMARK   24  A    between atoms: _58  and  _59
REMARK   25  A    between atoms: _64  and  _66
REMARK   26  A    between atoms: _66  and  _67
REMARK   27  A    between atoms: _66  and  _69
REMARK   28  A    between atoms: _69  and  _70
REMARK   29  A    between atoms: _76  and  _78
REMARK   30  A    between atoms: _78  and  _79
REMARK   31  A    between atoms: _81  and  _83
REMARK   32  A    between atoms: _83  and  _84
REMARK   33  A    between atoms: _83  and  _86
REMARK   34  A    between atoms: _88  and  _90
REMARK   35  A    between atoms: _90  and  _91
REMARK   36  A    between atoms: _90  and  _93
REMARK   37  A    between atoms: _96  and  _98
REMARK   38  A    between atoms: _98  and  _99
REMARK   39  A    between atoms: _98  and  _101
REMARK   40  A    between atoms: _101  and  _102
REMARK   41  A    between atoms: _107  and  _108
REMARK   42  A    between atoms: _110  and  _112
REMARK   43  A    between atoms: _112  and  _113
REMARK   44  A    between atoms: _112  and  _115
REMARK   45  A    between atoms: _115  and  _116
REMARK   46  A    between atoms: _121  and  _123
REMARK   47  A    between atoms: _123  and  _124
REMARK   48  A    between atoms: _123  and  _126
REMARK   49  A    between atoms: _126  and  _127
REMARK   50  A    between atoms: _132  and  _134
REMARK   51  A    between atoms: _134  and  _135
REMARK   52  A    between atoms: _134  and  _137
REMARK   53  A    between atoms: _139  and  _141
REMARK   54  A    between atoms: _141  and  _142
REMARK   55  A    between atoms: _145  and  _147
REMARK   56  A    between atoms: _147  and  _148
REMARK   57  A    between atoms: _147  and  _150
REMARK   58  A    between atoms: _153  and  _155
REMARK   59  A    between atoms: _155  and  _156
REMARK   60  A    between atoms: _155  and  _158
REMARK   61  A    between atoms: _158  and  _159
REMARK   62  A    between atoms: _159  and  _160
REMARK   63  A    between atoms: _160  and  _161
REMARK   64  A    between atoms: _161  and  _162
REMARK   65  A    between atoms: _166  and  _168
REMARK   66  A    between atoms: _168  and  _169
REMARK   67  A    between atoms: _168  and  _171
REMARK   68  A    between atoms: _171  and  _172
REMARK   69  A    between atoms: _174  and  _176
REMARK   70  A    between atoms: _176  and  _177
REMARK   71  A    between atoms: _176  and  _179
REMARK   72  A    between atoms: _179  and  _180
REMARK   73  A    between atoms: _183  and  _185
REMARK   74  A    between atoms: _185  and  _186
REMARK   75  A    between atoms: _185  and  _188
REMARK   76  A    between atoms: _188  and  _189
REMARK   77  A    between atoms: _192  and  _194
REMARK   78  A    between atoms: _194  and  _195
REMARK   79  A    between atoms: _194  and  _197
REMARK   80  A    between atoms: _197  and  _198
REMARK   81  A    between atoms: _198  and  _199
REMARK   82  A    between atoms: _202  and  _204
REMARK   83  A    between atoms: _204  and  _205
REMARK   84  A    between atoms: _204  and  _207
REMARK   85  A    between atoms: _210  and  _212
REMARK   86  A    between atoms: _212  and  _213
REMARK   87  A    between atoms: _212  and  _215
REMARK   88  A    between atoms: _215  and  _216
REMARK   89  A    between atoms: _216  and  _217
REMARK   90  A    between atoms: _222  and  _224
REMARK   91  A    between atoms: _224  and  _225
REMARK   92  A    between atoms: _224  and  _227
REMARK   93  A    between atoms: _227  and  _228
REMARK   94  A    between atoms: _234  and  _236
REMARK   95  A    between atoms: _236  and  _237
REMARK   96  A    between atoms: _236  and  _239
REMARK   97  A    between atoms: _239  and  _240
REMARK   98  A    between atoms: _243  and  _245
REMARK   99  A    between atoms: _245  and  _246
REMARK  100  A    between atoms: _245  and  _248
REMARK  101  A    between atoms: _248  and  _249
REMARK  102  A    between atoms: _252  and  _254
REMARK  103  A    between atoms: _254  and  _255
REMARK  104  A    between atoms: _254  and  _257
REMARK  105  A    between atoms: _257  and  _258
REMARK  106  A    between atoms: _258  and  _259
REMARK  107  A    between atoms: _262  and  _264
REMARK  108  A    between atoms: _264  and  _265
REMARK  109  A    between atoms: _267  and  _269
REMARK  110  A    between atoms: _269  and  _270
REMARK  111  A    between atoms: _269  and  _272
REMARK  112  A    between atoms: _272  and  _273
REMARK  113  A    between atoms: _276  and  _278
REMARK  114  A    between atoms: _278  and  _279
REMARK  115  A    between atoms: _278  and  _281
REMARK  116  A    between atoms: _281  and  _282
REMARK  117  A    between atoms: _285  and  _287
REMARK  118  A    between atoms: _287  and  _288
REMARK  119  A    between atoms: _287  and  _290
REMARK  120  A    between atoms: _290  and  _291
REMARK  121  A    between atoms: _291  and  _292
REMARK  122  A    between atoms: _294  and  _296
REMARK  123  A    between atoms: _296  and  _297
REMARK  124  A    between atoms: _296  and  _299
REMARK  125  A    between atoms: _299  and  _300
REMARK  126  A    between atoms: _300  and  _301
REMARK  127  A    between atoms: _301  and  _302
REMARK  128  A    between atoms: _302  and  _303
REMARK  129  A    between atoms: _307  and  _309
REMARK  130  A    between atoms: _309  and  _310
REMARK  131  A    between atoms: _309  and  _312
REMARK  132  A    between atoms: _312  and  _313
REMARK  133  A    between atoms: _319  and  _321
REMARK  134  A    between atoms: _321  and  _322
REMARK  135  A    between atoms: _321  and  _324
REMARK  136  A    between atoms: _327  and  _329
REMARK  137  A    between atoms: _329  and  _330
REMARK  138  A    between atoms: _329  and  _332
REMARK  139  A    between atoms: _332  and  _333
REMARK  140  A    between atoms: _336  and  _338
REMARK  141  A    between atoms: _338  and  _339
REMARK  142  A    between atoms: _338  and  _341
REMARK  143  A    between atoms: _341  and  _342
REMARK  144  A    between atoms: _344  and  _346
REMARK  145  A    between atoms: _346  and  _347
REMARK  146  A    between atoms: _346  and  _349
REMARK  147  A    between atoms: _349  and  _350
REMARK  148  A    between atoms: _353  and  _355
REMARK  149  A    between atoms: _355  and  _356
REMARK  150  A    between atoms: _358  and  _360
REMARK  151  A    between atoms: _360  and  _361
REMARK  152  A    between atoms: _360  and  _363
REMARK  153  A    between atoms: _363  and  _364
REMARK  154  A    between atoms: _367  and  _369
REMARK  155  A    between atoms: _369  and  _370
REMARK  156  A    between atoms: _369  and  _372
REMARK  157  A    between atoms: _375  and  _376
REMARK  158  A    between atoms: _381  and  _383
REMARK  159  A    between atoms: _383  and  _384
REMARK  160  A    between atoms: _383  and  _386
REMARK  161  A    between atoms: _386  and  _387
REMARK  162  A    between atoms: _390  and  _392
REMARK  163  A    between atoms: _392  and  _393
REMARK  164  A    between atoms: _392  and  _395
REMARK  165  A    between atoms: _398  and  _400
REMARK  166  A    between atoms: _400  and  _401
REMARK  167  A    between atoms: _400  and  _403
REMARK  168  A    between atoms: _406  and  _408
REMARK  169  A    between atoms: _408  and  _409
REMARK  170  A    between atoms: _408  and  _411
REMARK  171  A    between atoms: _411  and  _412
REMARK  172  A    between atoms: _416  and  _417
REMARK  173  A    between atoms: _422  and  _424
REMARK  174  A    between atoms: _424  and  _425
REMARK  175  A    between atoms: _424  and  _427
REMARK  176  A    between atoms: _427  and  _428
REMARK  177  A    between atoms: _433  and  _434
REMARK  178  A    between atoms: _436  and  _438
REMARK  179  A    between atoms: _438  and  _439
REMARK  180  A    between atoms: _438  and  _441
REMARK  181  A    between atoms: _441  and  _442
REMARK  182  A    between atoms: _442  and  _443
REMARK  183  A    between atoms: _445  and  _447
REMARK  184  A    between atoms: _447  and  _448
REMARK  185  A    between atoms: _447  and  _450
REMARK  186  A    between atoms: _450  and  _451
REMARK  187  A    between atoms: _451  and  _452
REMARK  188  A    between atoms: _452  and  _453
REMARK  189  A    between atoms: _453  and  _454
REMARK  190  A    between atoms: _458  and  _460
REMARK  191  A    between atoms: _460  and  _461
REMARK  192  A    between atoms: _460  and  _463
REMARK  193  A    between atoms: _463  and  _464
REMARK  194  A    between atoms: _469  and  _471
REMARK  195  A    between atoms: _471  and  _472
REMARK  196  A    between atoms: _474  and  _476
REMARK  197  A    between atoms: _476  and  _477
REMARK  198  A    between atoms: _476  and  _479
REMARK  199  A    between atoms: _479  and  _480
REMARK  200  A    between atoms: _483  and  _485
REMARK  201  A    between atoms: _485  and  _486
REMARK  202  A    between atoms: _485  and  _488
REMARK  203  A    between atoms: _488  and  _489
REMARK  204  A    between atoms: _494  and  _496
REMARK  205  A    between atoms: _496  and  _497
REMARK  206  A    between atoms: _496  and  _499
REMARK  207  A    between atoms: _499  and  _500
REMARK  208  A    between atoms: _503  and  _505
REMARK  209  A    between atoms: _505  and  _506
REMARK  210  A    between atoms: _505  and  _508
REMARK  211  A    between atoms: _508  and  _509
REMARK  212  A    between atoms: _515  and  _517
REMARK  213  A    between atoms: _517  and  _518
REMARK  214  A    between atoms: _517  and  _520
REMARK  215  A    between atoms: _523  and  _525
REMARK  216  A    between atoms: _525  and  _526
REMARK  217  A    between atoms: _525  and  _528
REMARK  218  A    between atoms: _528  and  _529
REMARK  219  A    between atoms: _534  and  _536
REMARK  220  A    between atoms: _536  and  _537
REMARK  221  A    between atoms: _536  and  _539
REMARK  222  A    between atoms: _539  and  _540
REMARK  223  A    between atoms: _540  and  _541
REMARK  224  A    between atoms: _541  and  _542
REMARK  225  A    between atoms: _551  and  _553
REMARK  226  A    between atoms: _553  and  _554
REMARK  227  A    between atoms: _553  and  _556
REMARK  228  A    between atoms: _556  and  _557
REMARK  229  A    between atoms: _562  and  _564
REMARK  230  A    between atoms: _564  and  _565
REMARK  231  A    between atoms: _564  and  _567
REMARK  232  A    between atoms: _569  and  _571
REMARK  233  A    between atoms: _571  and  _572
REMARK  234  A    between atoms: _571  and  _574
REMARK  235  A    between atoms: _574  and  _575
REMARK  236  A    between atoms: _575  and  _576
REMARK  237  A    between atoms: _578  and  _580
REMARK  238  A    between atoms: _580  and  _581
REMARK  239  A    between atoms: _580  and  _583
REMARK  240  A    between atoms: _583  and  _584
REMARK  241  A    between atoms: _587  and  _589
REMARK  242  A    between atoms: _589  and  _590
REMARK  243  A    between atoms: _589  and  _592
REMARK  244  A    between atoms: _592  and  _593
REMARK  245  A    between atoms: _593  and  _594
REMARK  246  A    between atoms: _594  and  _595
REMARK  247  A    between atoms: _595  and  _596
REMARK  248  A    between atoms: _600  and  _602
REMARK  249  A    between atoms: _602  and  _603
REMARK  250  A    between atoms: _602  and  _605
REMARK  251  A    between atoms: _608  and  _610
REMARK  252  A    between atoms: _610  and  _611
REMARK  253  A    between atoms: _614  and  _616
REMARK  254  A    between atoms: _616  and  _617
REMARK  255  A    between atoms: _616  and  _619
REMARK  256  A    between atoms: _619  and  _620
REMARK  257  A    between atoms: _623  and  _625
REMARK  258  A    between atoms: _625  and  _626
REMARK  259  A    between atoms: _625  and  _628
REMARK  260  A    between atoms: _628  and  _629
REMARK  261  A    between atoms: _635  and  _637
REMARK  262  A    between atoms: _637  and  _638
REMARK                            x       y       z     vdW  Elec       q    Type
REMARK                         _______ _______ _______ _____ _____    ______ ____
ROOT
ATOM      1  O   HOH     1      25.087 -11.925  31.029  0.00  0.00    +0.000 OA
ENDROOT
TORSDOF 0
REMARK  Name = ../refined-set-2016/3u6i/3u6i_pocket.pdb
REMARK  262 active torsions:
REMARK  status: ('A' for Active; 'I' for Inactive)
REMARK    1  A    between atoms: _1  and  _3
REMARK    2  A    between atoms: _3  and  _4
REMARK    3  A    between atoms: _3  and  _6
REMARK    4  A    between atoms: _9  and  _11
REMARK    5  A    between atoms: _11  and  _12
REMARK    6  A    between atoms: _11  and  _14
REMARK    7  A    between atoms: _17  and  _19
REMARK    8  A    between atoms: _19  and  _20
REMARK    9  A    between atoms: _19  and  _22
REMARK   10  A    between atoms: _22  and  _23
REMARK   11  A    between atoms: _26  and  _28
REMARK   12  A    between atoms: _28  and  _29
REMARK   13  A    between atoms: _31  and  _33
REMARK   14  A    between atoms: _33  and  _34
REMARK   15  A    between atoms: _33  and  _36
REMARK   16  A    between atoms: _36  and  _37
REMARK   17  A    between atoms: _37  and  _38
REMARK   18  A    between atoms: _38  and  _39
REMARK   19  A    between atoms: _48  and  _50
REMARK   20  A    between atoms: _50  and  _51
REMARK   21  A    between atoms: _53  and  _55
REMARK   22  A    between atoms: _55  and  _56
REMARK   23  A    between atoms: _55  and  _58
REMARK   24  A    between atoms: _58  and  _59
REMARK   25  A    between atoms: _64  and  _66
REMARK   26  A    between atoms: _66  and  _67
REMARK   27  A    between atoms: _66  and  _69
REMARK   28  A    between atoms: _69  and  _70
REMARK   29  A    between atoms: _76  and  _78
REMARK   30  A    between atoms: _78  and  _79
REMARK   31  A    between atoms: _81  and  _83
REMARK   32  A    between atoms: _83  and  _84
REMARK   33  A    between atoms: _83  and  _86
REMARK   34  A    between atoms: _88  and  _90
REMARK   35  A    between atoms: _90  and  _91
REMARK   36  A    between atoms: _90  and  _93
REMARK   37  A    between atoms: _96  and  _98
REMARK   38  A    between atoms: _98  and  _99
REMARK   39  A    between atoms: _98  and  _101
REMARK   40  A    between atoms: _101  and  _102
REMARK   41  A    between atoms: _107  and  _108
REMARK   42  A    between atoms: _110  and  _112
REMARK   43  A    between atoms: _112  and  _113
REMARK   44  A    between atoms: _112  and  _115
REMARK   45  A    between atoms: _115  and  _116
REMARK   46  A    between atoms: _121  and  _123
REMARK   47  A    between atoms: _123  and  _124
REMARK   48  A    between atoms: _123  and  _126
REMARK   49  A    between atoms: _126  and  _127
REMARK   50  A    between atoms: _132  and  _134
REMARK   51  A    between atoms: _134  and  _135
REMARK   52  A    between atoms: _134  and  _137
REMARK   53  A    between atoms: _139  and  _141
REMARK   54  A    between atoms: _141  and  _142
REMARK   55  A    between atoms: _145  and  _147
REMARK   56  A    between atoms: _147  and  _148
REMARK   57  A    between atoms: _147  and  _150
REMARK   58  A    between atoms: _153  and  _155
REMARK   59  A    between atoms: _155  and  _156
REMARK   60  A    between atoms: _155  and  _158
REMARK   61  A    between atoms: _158  and  _159
REMARK   62  A    between atoms: _159  and  _160
REMARK   63  A    between atoms: _160  and  _161
REMARK   64  A    between atoms: _161  and  _162
REMARK   65  A    between atoms: _166  and  _168
REMARK   66  A    between atoms: _168  and  _169
REMARK   67  A    between atoms: _168  and  _171
REMARK   68  A    between atoms: _171  and  _172
REMARK   69  A    between atoms: _174  and  _176
REMARK   70  A    between atoms: _176  and  _177
REMARK   71  A    between atoms: _176  and  _179
REMARK   72  A    between atoms: _179  and  _180
REMARK   73  A    between atoms: _183  and  _185
REMARK   74  A    between atoms: _185  and  _186
REMARK   75  A    between atoms: _185  and  _188
REMARK   76  A    between atoms: _188  and  _189
REMARK   77  A    between atoms: _192  and  _194
REMARK   78  A    between atoms: _194  and  _195
REMARK   79  A    between atoms: _194  and  _197
REMARK   80  A    between atoms: _197  and  _198
REMARK   81  A    between atoms: _198  and  _199
REMARK   82  A    between atoms: _202  and  _204
REMARK   83  A    between atoms: _204  and  _205
REMARK   84  A    between atoms: _204  and  _207
REMARK   85  A    between atoms: _210  and  _212
REMARK   86  A    between atoms: _212  and  _213
REMARK   87  A    between atoms: _212  and  _215
REMARK   88  A    between atoms: _215  and  _216
REMARK   89  A    between atoms: _216  and  _217
REMARK   90  A    between atoms: _222  and  _224
REMARK   91  A    between atoms: _224  and  _225
REMARK   92  A    between atoms: _224  and  _227
REMARK   93  A    between atoms: _227  and  _228
REMARK   94  A    between atoms: _234  and  _236
REMARK   95  A    between atoms: _236  and  _237
REMARK   96  A    between atoms: _236  and  _239
REMARK   97  A    between atoms: _239  and  _240
REMARK   98  A    between atoms: _243  and  _245
REMARK   99  A    between atoms: _245  and  _246
REMARK  100  A    between atoms: _245  and  _248
REMARK  101  A    between atoms: _248  and  _249
REMARK  102  A    between atoms: _252  and  _254
REMARK  103  A    between atoms: _254  and  _255
REMARK  104  A    between atoms: _254  and  _257
REMARK  105  A    between atoms: _257  and  _258
REMARK  106  A    between atoms: _258  and  _259
REMARK  107  A    between atoms: _262  and  _264
REMARK  108  A    between atoms: _264  and  _265
REMARK  109  A    between atoms: _267  and  _269
REMARK  110  A    between atoms: _269  and  _270
REMARK  111  A    between atoms: _269  and  _272
REMARK  112  A    between atoms: _272  and  _273
REMARK  113  A    between atoms: _276  and  _278
REMARK  114  A    between atoms: _278  and  _279
REMARK  115  A    between atoms: _278  and  _281
REMARK  116  A    between atoms: _281  and  _282
REMARK  117  A    between atoms: _285  and  _287
REMARK  118  A    between atoms: _287  and  _288
REMARK  119  A    between atoms: _287  and  _290
REMARK  120  A    between atoms: _290  and  _291
REMARK  121  A    between atoms: _291  and  _292
REMARK  122  A    between atoms: _294  and  _296
REMARK  123  A    between atoms: _296  and  _297
REMARK  124  A    between atoms: _296  and  _299
REMARK  125  A    between atoms: _299  and  _300
REMARK  126  A    between atoms: _300  and  _301
REMARK  127  A    between atoms: _301  and  _302
REMARK  128  A    between atoms: _302  and  _303
REMARK  129  A    between atoms: _307  and  _309
REMARK  130  A    between atoms: _309  and  _310
REMARK  131  A    between atoms: _309  and  _312
REMARK  132  A    between atoms: _312  and  _313
REMARK  133  A    between atoms: _319  and  _321
REMARK  134  A    between atoms: _321  and  _322
REMARK  135  A    between atoms: _321  and  _324
REMARK  136  A    between atoms: _327  and  _329
REMARK  137  A    between atoms: _329  and  _330
REMARK  138  A    between atoms: _329  and  _332
REMARK  139  A    between atoms: _332  and  _333
REMARK  140  A    between atoms: _336  and  _338
REMARK  141  A    between atoms: _338  and  _339
REMARK  142  A    between atoms: _338  and  _341
REMARK  143  A    between atoms: _341  and  _342
REMARK  144  A    between atoms: _344  and  _346
REMARK  145  A    between atoms: _346  and  _347
REMARK  146  A    between atoms: _346  and  _349
REMARK  147  A    between atoms: _349  and  _350
REMARK  148  A    between atoms: _353  and  _355
REMARK  149  A    between atoms: _355  and  _356
REMARK  150  A    between atoms: _358  and  _360
REMARK  151  A    between atoms: _360  and  _361
REMARK  152  A    between atoms: _360  and  _363
REMARK  153  A    between atoms: _363  and  _364
REMARK  154  A    between atoms: _367  and  _369
REMARK  155  A    between atoms: _369  and  _370
REMARK  156  A    between atoms: _369  and  _372
REMARK  157  A    between atoms: _375  and  _376
REMARK  158  A    between atoms: _381  and  _383
REMARK  159  A    between atoms: _383  and  _384
REMARK  160  A    between atoms: _383  and  _386
REMARK  161  A    between atoms: _386  and  _387
REMARK  162  A    between atoms: _390  and  _392
REMARK  163  A    between atoms: _392  and  _393
REMARK  164  A    between atoms: _392  and  _395
REMARK  165  A    between atoms: _398  and  _400
REMARK  166  A    between atoms: _400  and  _401
REMARK  167  A    between atoms: _400  and  _403
REMARK  168  A    between atoms: _406  and  _408
REMARK  169  A    between atoms: _408  and  _409
REMARK  170  A    between atoms: _408  and  _411
REMARK  171  A    between atoms: _411  and  _412
REMARK  172  A    between atoms: _416  and  _417
REMARK  173  A    between atoms: _422  and  _424
REMARK  174  A    between atoms: _424  and  _425
REMARK  175  A    between atoms: _424  and  _427
REMARK  176  A    between atoms: _427  and  _428
REMARK  177  A    between atoms: _433  and  _434
REMARK  178  A    between atoms: _436  and  _438
REMARK  179  A    between atoms: _438  and  _439
REMARK  180  A    between atoms: _438  and  _441
REMARK  181  A    between atoms: _441  and  _442
REMARK  182  A    between atoms: _442  and  _443
REMARK  183  A    between atoms: _445  and  _447
REMARK  184  A    between atoms: _447  and  _448
REMARK  185  A    between atoms: _447  and  _450
REMARK  186  A    between atoms: _450  and  _451
REMARK  187  A    between atoms: _451  and  _452
REMARK  188  A    between atoms: _452  and  _453
REMARK  189  A    between atoms: _453  and  _454
REMARK  190  A    between atoms: _458  and  _460
REMARK  191  A    between atoms: _460  and  _461
REMARK  192  A    between atoms: _460  and  _463
REMARK  193  A    between atoms: _463  and  _464
REMARK  194  A    between atoms: _469  and  _471
REMARK  195  A    between atoms: _471  and  _472
REMARK  196  A    between atoms: _474  and  _476
REMARK  197  A    between atoms: _476  and  _477
REMARK  198  A    between atoms: _476  and  _479
REMARK  199  A    between atoms: _479  and  _480
REMARK  200  A    between atoms: _483  and  _485
REMARK  201  A    between atoms: _485  and  _486
REMARK  202  A    between atoms: _485  and  _488
REMARK  203  A    between atoms: _488  and  _489
REMARK  204  A    between atoms: _494  and  _496
REMARK  205  A    between atoms: _496  and  _497
REMARK  206  A    between atoms: _496  and  _499
REMARK  207  A    between atoms: _499  and  _500
REMARK  208  A    between atoms: _503  and  _505
REMARK  209  A    between atoms: _505  and  _506
REMARK  210  A    between atoms: _505  and  _508
REMARK  211  A    between atoms: _508  and  _509
REMARK  212  A    between atoms: _515  and  _517
REMARK  213  A    between atoms: _517  and  _518
REMARK  214  A    between atoms: _517  and  _520
REMARK  215  A    between atoms: _523  and  _525
REMARK  216  A    between atoms: _525  and  _526
REMARK  217  A    between atoms: _525  and  _528
REMARK  218  A    between atoms: _528  and  _529
REMARK  219  A    between atoms: _534  and  _536
REMARK  220  A    between atoms: _536  and  _537
REMARK  221  A    between atoms: _536  and  _539
REMARK  222  A    between atoms: _539  and  _540
REMARK  223  A    between atoms: _540  and  _541
REMARK  224  A    between atoms: _541  and  _542
REMARK  225  A    between atoms: _551  and  _553
REMARK  226  A    between atoms: _553  and  _554
REMARK  227  A    between atoms: _553  and  _556
REMARK  228  A    between atoms: _556  and  _557
REMARK  229  A    between atoms: _562  and  _564
REMARK  230  A    between atoms: _564  and  _565
REMARK  231  A    between atoms: _564  and  _567
REMARK  232  A    between atoms: _569  and  _571
REMARK  233  A    between atoms: _571  and  _572
REMARK  234  A    between atoms: _571  and  _574
REMARK  235  A    between atoms: _574  and  _575
REMARK  236  A    between atoms: _575  and  _576
REMARK  237  A    between atoms: _578  and  _580
REMARK  238  A    between atoms: _580  and  _581
REMARK  239  A    between atoms: _580  and  _583
REMARK  240  A    between atoms: _583  and  _584
REMARK  241  A    between atoms: _587  and  _589
REMARK  242  A    between atoms: _589  and  _590
REMARK  243  A    between atoms: _589  and  _592
REMARK  244  A    between atoms: _592  and  _593
REMARK  245  A    between atoms: _593  and  _594
REMARK  246  A    between atoms: _594  and  _595
REMARK  247  A    between atoms: _595  and  _596
REMARK  248  A    between atoms: _600  and  _602
REMARK  249  A    between atoms: _602  and  _603
REMARK  250  A    between atoms: _602  and  _605
REMARK  251  A    between atoms: _608  and  _610
REMARK  252  A    between atoms: _610  and  _611
REMARK  253  A    between atoms: _614  and  _616
REMARK  254  A    between atoms: _616  and  _617
REMARK  255  A    between atoms: _616  and  _619
REMARK  256  A    between atoms: _619  and  _620
REMARK  257  A    between atoms: _623  and  _625
REMARK  258  A    between atoms: _625  and  _626
REMARK  259  A    between atoms: _625  and  _628
REMARK  260  A    between atoms: _628  and  _629
REMARK  261  A    between atoms: _635  and  _637
REMARK  262  A    between atoms: _637  and  _638
REMARK                            x       y       z     vdW  Elec       q    Type
REMARK                         _______ _______ _______ _____ _____    ______ ____
ROOT
ATOM      1  O   HOH     1      21.161 -10.445  27.468  0.00  0.00    +0.000 OA
ENDROOT
TORSDOF 0
REMARK  Name = ../refined-set-2016/3u6i/3u6i_pocket.pdb
REMARK  262 active torsions:
REMARK  status: ('A' for Active; 'I' for Inactive)
REMARK    1  A    between atoms: _1  and  _3
REMARK    2  A    between atoms: _3  and  _4
REMARK    3  A    between atoms: _3  and  _6
REMARK    4  A    between atoms: _9  and  _11
REMARK    5  A    between atoms: _11  and  _12
REMARK    6  A    between atoms: _11  and  _14
REMARK    7  A    between atoms: _17  and  _19
REMARK    8  A    between atoms: _19  and  _20
REMARK    9  A    between atoms: _19  and  _22
REMARK   10  A    between atoms: _22  and  _23
REMARK   11  A    between atoms: _26  and  _28
REMARK   12  A    between atoms: _28  and  _29
REMARK   13  A    between atoms: _31  and  _33
REMARK   14  A    between atoms: _33  and  _34
REMARK   15  A    between atoms: _33  and  _36
REMARK   16  A    between atoms: _36  and  _37
REMARK   17  A    between atoms: _37  and  _38
REMARK   18  A    between atoms: _38  and  _39
REMARK   19  A    between atoms: _48  and  _50
REMARK   20  A    between atoms: _50  and  _51
REMARK   21  A    between atoms: _53  and  _55
REMARK   22  A    between atoms: _55  and  _56
REMARK   23  A    between atoms: _55  and  _58
REMARK   24  A    between atoms: _58  and  _59
REMARK   25  A    between atoms: _64  and  _66
REMARK   26  A    between atoms: _66  and  _67
REMARK   27  A    between atoms: _66  and  _69
REMARK   28  A    between atoms: _69  and  _70
REMARK   29  A    between atoms: _76  and  _78
REMARK   30  A    between atoms: _78  and  _79
REMARK   31  A    between atoms: _81  and  _83
REMARK   32  A    between atoms: _83  and  _84
REMARK   33  A    between atoms: _83  and  _86
REMARK   34  A    between atoms: _88  and  _90
REMARK   35  A    between atoms: _90  and  _91
REMARK   36  A    between atoms: _90  and  _93
REMARK   37  A    between atoms: _96  and  _98
REMARK   38  A    between atoms: _98  and  _99
REMARK   39  A    between atoms: _98  and  _101
REMARK   40  A    between atoms: _101  and  _102
REMARK   41  A    between atoms: _107  and  _108
REMARK   42  A    between atoms: _110  and  _112
REMARK   43  A    between atoms: _112  and  _113
REMARK   44  A    between atoms: _112  and  _115
REMARK   45  A    between atoms: _115  and  _116
REMARK   46  A    between atoms: _121  and  _123
REMARK   47  A    between atoms: _123  and  _124
REMARK   48  A    between atoms: _123  and  _126
REMARK   49  A    between atoms: _126  and  _127
REMARK   50  A    between atoms: _132  and  _134
REMARK   51  A    between atoms: _134  and  _135
REMARK   52  A    between atoms: _134  and  _137
REMARK   53  A    between atoms: _139  and  _141
REMARK   54  A    between atoms: _141  and  _142
REMARK   55  A    between atoms: _145  and  _147
REMARK   56  A    between atoms: _147  and  _148
REMARK   57  A    between atoms: _147  and  _150
REMARK   58  A    between atoms: _153  and  _155
REMARK   59  A    between atoms: _155  and  _156
REMARK   60  A    between atoms: _155  and  _158
REMARK   61  A    between atoms: _158  and  _159
REMARK   62  A    between atoms: _159  and  _160
REMARK   63  A    between atoms: _160  and  _161
REMARK   64  A    between atoms: _161  and  _162
REMARK   65  A    between atoms: _166  and  _168
REMARK   66  A    between atoms: _168  and  _169
REMARK   67  A    between atoms: _168  and  _171
REMARK   68  A    between atoms: _171  and  _172
REMARK   69  A    between atoms: _174  and  _176
REMARK   70  A    between atoms: _176  and  _177
REMARK   71  A    between atoms: _176  and  _179
REMARK   72  A    between atoms: _179  and  _180
REMARK   73  A    between atoms: _183  and  _185
REMARK   74  A    between atoms: _185  and  _186
REMARK   75  A    between atoms: _185  and  _188
REMARK   76  A    between atoms: _188  and  _189
REMARK   77  A    between atoms: _192  and  _194
REMARK   78  A    between atoms: _194  and  _195
REMARK   79  A    between atoms: _194  and  _197
REMARK   80  A    between atoms: _197  and  _198
REMARK   81  A    between atoms: _198  and  _199
REMARK   82  A    between atoms: _202  and  _204
REMARK   83  A    between atoms: _204  and  _205
REMARK   84  A    between atoms: _204  and  _207
REMARK   85  A    between atoms: _210  and  _212
REMARK   86  A    between atoms: _212  and  _213
REMARK   87  A    between atoms: _212  and  _215
REMARK   88  A    between atoms: _215  and  _216
REMARK   89  A    between atoms: _216  and  _217
REMARK   90  A    between atoms: _222  and  _224
REMARK   91  A    between atoms: _224  and  _225
REMARK   92  A    between atoms: _224  and  _227
REMARK   93  A    between atoms: _227  and  _228
REMARK   94  A    between atoms: _234  and  _236
REMARK   95  A    between atoms: _236  and  _237
REMARK   96  A    between atoms: _236  and  _239
REMARK   97  A    between atoms: _239  and  _240
REMARK   98  A    between atoms: _243  and  _245
REMARK   99  A    between atoms: _245  and  _246
REMARK  100  A    between atoms: _245  and  _248
REMARK  101  A    between atoms: _248  and  _249
REMARK  102  A    between atoms: _252  and  _254
REMARK  103  A    between atoms: _254  and  _255
REMARK  104  A    between atoms: _254  and  _257
REMARK  105  A    between atoms: _257  and  _258
REMARK  106  A    between atoms: _258  and  _259
REMARK  107  A    between atoms: _262  and  _264
REMARK  108  A    between atoms: _264  and  _265
REMARK  109  A    between atoms: _267  and  _269
REMARK  110  A    between atoms: _269  and  _270
REMARK  111  A    between atoms: _269  and  _272
REMARK  112  A    between atoms: _272  and  _273
REMARK  113  A    between atoms: _276  and  _278
REMARK  114  A    between atoms: _278  and  _279
REMARK  115  A    between atoms: _278  and  _281
REMARK  116  A    between atoms: _281  and  _282
REMARK  117  A    between atoms: _285  and  _287
REMARK  118  A    between atoms: _287  and  _288
REMARK  119  A    between atoms: _287  and  _290
REMARK  120  A    between atoms: _290  and  _291
REMARK  121  A    between atoms: _291  and  _292
REMARK  122  A    between atoms: _294  and  _296
REMARK  123  A    between atoms: _296  and  _297
REMARK  124  A    between atoms: _296  and  _299
REMARK  125  A    between atoms: _299  and  _300
REMARK  126  A    between atoms: _300  and  _301
REMARK  127  A    between atoms: _301  and  _302
REMARK  128  A    between atoms: _302  and  _303
REMARK  129  A    between atoms: _307  and  _309
REMARK  130  A    between atoms: _309  and  _310
REMARK  131  A    between atoms: _309  and  _312
REMARK  132  A    between atoms: _312  and  _313
REMARK  133  A    between atoms: _319  and  _321
REMARK  134  A    between atoms: _321  and  _322
REMARK  135  A    between atoms: _321  and  _324
REMARK  136  A    between atoms: _327  and  _329
REMARK  137  A    between atoms: _329  and  _330
REMARK  138  A    between atoms: _329  and  _332
REMARK  139  A    between atoms: _332  and  _333
REMARK  140  A    between atoms: _336  and  _338
REMARK  141  A    between atoms: _338  and  _339
REMARK  142  A    between atoms: _338  and  _341
REMARK  143  A    between atoms: _341  and  _342
REMARK  144  A    between atoms: _344  and  _346
REMARK  145  A    between atoms: _346  and  _347
REMARK  146  A    between atoms: _346  and  _349
REMARK  147  A    between atoms: _349  and  _350
REMARK  148  A    between atoms: _353  and  _355
REMARK  149  A    between atoms: _355  and  _356
REMARK  150  A    between atoms: _358  and  _360
REMARK  151  A    between atoms: _360  and  _361
REMARK  152  A    between atoms: _360  and  _363
REMARK  153  A    between atoms: _363  and  _364
REMARK  154  A    between atoms: _367  and  _369
REMARK  155  A    between atoms: _369  and  _370
REMARK  156  A    between atoms: _369  and  _372
REMARK  157  A    between atoms: _375  and  _376
REMARK  158  A    between atoms: _381  and  _383
REMARK  159  A    between atoms: _383  and  _384
REMARK  160  A    between atoms: _383  and  _386
REMARK  161  A    between atoms: _386  and  _387
REMARK  162  A    between atoms: _390  and  _392
REMARK  163  A    between atoms: _392  and  _393
REMARK  164  A    between atoms: _392  and  _395
REMARK  165  A    between atoms: _398  and  _400
REMARK  166  A    between atoms: _400  and  _401
REMARK  167  A    between atoms: _400  and  _403
REMARK  168  A    between atoms: _406  and  _408
REMARK  169  A    between atoms: _408  and  _409
REMARK  170  A    between atoms: _408  and  _411
REMARK  171  A    between atoms: _411  and  _412
REMARK  172  A    between atoms: _416  and  _417
REMARK  173  A    between atoms: _422  and  _424
REMARK  174  A    between atoms: _424  and  _425
REMARK  175  A    between atoms: _424  and  _427
REMARK  176  A    between atoms: _427  and  _428
REMARK  177  A    between atoms: _433  and  _434
REMARK  178  A    between atoms: _436  and  _438
REMARK  179  A    between atoms: _438  and  _439
REMARK  180  A    between atoms: _438  and  _441
REMARK  181  A    between atoms: _441  and  _442
REMARK  182  A    between atoms: _442  and  _443
REMARK  183  A    between atoms: _445  and  _447
REMARK  184  A    between atoms: _447  and  _448
REMARK  185  A    between atoms: _447  and  _450
REMARK  186  A    between atoms: _450  and  _451
REMARK  187  A    between atoms: _451  and  _452
REMARK  188  A    between atoms: _452  and  _453
REMARK  189  A    between atoms: _453  and  _454
REMARK  190  A    between atoms: _458  and  _460
REMARK  191  A    between atoms: _460  and  _461
REMARK  192  A    between atoms: _460  and  _463
REMARK  193  A    between atoms: _463  and  _464
REMARK  194  A    between atoms: _469  and  _471
REMARK  195  A    between atoms: _471  and  _472
REMARK  196  A    between atoms: _474  and  _476
REMARK  197  A    between atoms: _476  and  _477
REMARK  198  A    between atoms: _476  and  _479
REMARK  199  A    between atoms: _479  and  _480
REMARK  200  A    between atoms: _483  and  _485
REMARK  201  A    between atoms: _485  and  _486
REMARK  202  A    between atoms: _485  and  _488
REMARK  203  A    between atoms: _488  and  _489
REMARK  204  A    between atoms: _494  and  _496
REMARK  205  A    between atoms: _496  and  _497
REMARK  206  A    between atoms: _496  and  _499
REMARK  207  A    between atoms: _499  and  _500
REMARK  208  A    between atoms: _503  and  _505
REMARK  209  A    between atoms: _505  and  _506
REMARK  210  A    between atoms: _505  and  _508
REMARK  211  A    between atoms: _508  and  _509
REMARK  212  A    between atoms: _515  and  _517
REMARK  213  A    between atoms: _517  and  _518
REMARK  214  A    between atoms: _517  and  _520
REMARK  215  A    between atoms: _523  and  _525
REMARK  216  A    between atoms: _525  and  _526
REMARK  217  A    between atoms: _525  and  _528
REMARK  218  A    between atoms: _528  and  _529
REMARK  219  A    between atoms: _534  and  _536
REMARK  220  A    between atoms: _536  and  _537
REMARK  221  A    between atoms: _536  and  _539
REMARK  222  A    between atoms: _539  and  _540
REMARK  223  A    between atoms: _540  and  _541
REMARK  224  A    between atoms: _541  and  _542
REMARK  225  A    between atoms: _551  and  _553
REMARK  226  A    between atoms: _553  and  _554
REMARK  227  A    between atoms: _553  and  _556
REMARK  228  A    between atoms: _556  and  _557
REMARK  229  A    between atoms: _562  and  _564
REMARK  230  A    between atoms: _564  and  _565
REMARK  231  A    between atoms: _564  and  _567
REMARK  232  A    between atoms: _569  and  _571
REMARK  233  A    between atoms: _571  and  _572
REMARK  234  A    between atoms: _571  and  _574
REMARK  235  A    between atoms: _574  and  _575
REMARK  236  A    between atoms: _575  and  _576
REMARK  237  A    between atoms: _578  and  _580
REMARK  238  A    between atoms: _580  and  _581
REMARK  239  A    between atoms: _580  and  _583
REMARK  240  A    between atoms: _583  and  _584
REMARK  241  A    between atoms: _587  and  _589
REMARK  242  A    between atoms: _589  and  _590
REMARK  243  A    between atoms: _589  and  _592
REMARK  244  A    between atoms: _592  and  _593
REMARK  245  A    between atoms: _593  and  _594
REMARK  246  A    between atoms: _594  and  _595
REMARK  247  A    between atoms: _595  and  _596
REMARK  248  A    between atoms: _600  and  _602
REMARK  249  A    between atoms: _602  and  _603
REMARK  250  A    between atoms: _602  and  _605
REMARK  251  A    between atoms: _608  and  _610
REMARK  252  A    between atoms: _610  and  _611
REMARK  253  A    between atoms: _614  and  _616
REMARK  254  A    between atoms: _616  and  _617
REMARK  255  A    between atoms: _616  and  _619
REMARK  256  A    between atoms: _619  and  _620
REMARK  257  A    between atoms: _623  and  _625
REMARK  258  A    between atoms: _625  and  _626
REMARK  259  A    between atoms: _625  and  _628
REMARK  260  A    between atoms: _628  and  _629
REMARK  261  A    between atoms: _635  and  _637
REMARK  262  A    between atoms: _637  and  _638
REMARK                            x       y       z     vdW  Elec       q    Type
REMARK                         _______ _______ _______ _____ _____    ______ ____
ROOT
ATOM      1  O   HOH     1      18.628 -10.578  26.432  0.00  0.00    +0.000 OA
ENDROOT
TORSDOF 0
REMARK  Name = ../refined-set-2016/3u6i/3u6i_pocket.pdb
REMARK  262 active torsions:
REMARK  status: ('A' for Active; 'I' for Inactive)
REMARK    1  A    between atoms: _1  and  _3
REMARK    2  A    between atoms: _3  and  _4
REMARK    3  A    between atoms: _3  and  _6
REMARK    4  A    between atoms: _9  and  _11
REMARK    5  A    between atoms: _11  and  _12
REMARK    6  A    between atoms: _11  and  _14
REMARK    7  A    between atoms: _17  and  _19
REMARK    8  A    between atoms: _19  and  _20
REMARK    9  A    between atoms: _19  and  _22
REMARK   10  A    between atoms: _22  and  _23
REMARK   11  A    between atoms: _26  and  _28
REMARK   12  A    between atoms: _28  and  _29
REMARK   13  A    between atoms: _31  and  _33
REMARK   14  A    between atoms: _33  and  _34
REMARK   15  A    between atoms: _33  and  _36
REMARK   16  A    between atoms: _36  and  _37
REMARK   17  A    between atoms: _37  and  _38
REMARK   18  A    between atoms: _38  and  _39
REMARK   19  A    between atoms: _48  and  _50
REMARK   20  A    between atoms: _50  and  _51
REMARK   21  A    between atoms: _53  and  _55
REMARK   22  A    between atoms: _55  and  _56
REMARK   23  A    between atoms: _55  and  _58
REMARK   24  A    between atoms: _58  and  _59
REMARK   25  A    between atoms: _64  and  _66
REMARK   26  A    between atoms: _66  and  _67
REMARK   27  A    between atoms: _66  and  _69
REMARK   28  A    between atoms: _69  and  _70
REMARK   29  A    between atoms: _76  and  _78
REMARK   30  A    between atoms: _78  and  _79
REMARK   31  A    between atoms: _81  and  _83
REMARK   32  A    between atoms: _83  and  _84
REMARK   33  A    between atoms: _83  and  _86
REMARK   34  A    between atoms: _88  and  _90
REMARK   35  A    between atoms: _90  and  _91
REMARK   36  A    between atoms: _90  and  _93
REMARK   37  A    between atoms: _96  and  _98
REMARK   38  A    between atoms: _98  and  _99
REMARK   39  A    between atoms: _98  and  _101
REMARK   40  A    between atoms: _101  and  _102
REMARK   41  A    between atoms: _107  and  _108
REMARK   42  A    between atoms: _110  and  _112
REMARK   43  A    between atoms: _112  and  _113
REMARK   44  A    between atoms: _112  and  _115
REMARK   45  A    between atoms: _115  and  _116
REMARK   46  A    between atoms: _121  and  _123
REMARK   47  A    between atoms: _123  and  _124
REMARK   48  A    between atoms: _123  and  _126
REMARK   49  A    between atoms: _126  and  _127
REMARK   50  A    between atoms: _132  and  _134
REMARK   51  A    between atoms: _134  and  _135
REMARK   52  A    between atoms: _134  and  _137
REMARK   53  A    between atoms: _139  and  _141
REMARK   54  A    between atoms: _141  and  _142
REMARK   55  A    between atoms: _145  and  _147
REMARK   56  A    between atoms: _147  and  _148
REMARK   57  A    between atoms: _147  and  _150
REMARK   58  A    between atoms: _153  and  _155
REMARK   59  A    between atoms: _155  and  _156
REMARK   60  A    between atoms: _155  and  _158
REMARK   61  A    between atoms: _158  and  _159
REMARK   62  A    between atoms: _159  and  _160
REMARK   63  A    between atoms: _160  and  _161
REMARK   64  A    between atoms: _161  and  _162
REMARK   65  A    between atoms: _166  and  _168
REMARK   66  A    between atoms: _168  and  _169
REMARK   67  A    between atoms: _168  and  _171
REMARK   68  A    between atoms: _171  and  _172
REMARK   69  A    between atoms: _174  and  _176
REMARK   70  A    between atoms: _176  and  _177
REMARK   71  A    between atoms: _176  and  _179
REMARK   72  A    between atoms: _179  and  _180
REMARK   73  A    between atoms: _183  and  _185
REMARK   74  A    between atoms: _185  and  _186
REMARK   75  A    between atoms: _185  and  _188
REMARK   76  A    between atoms: _188  and  _189
REMARK   77  A    between atoms: _192  and  _194
REMARK   78  A    between atoms: _194  and  _195
REMARK   79  A    between atoms: _194  and  _197
REMARK   80  A    between atoms: _197  and  _198
REMARK   81  A    between atoms: _198  and  _199
REMARK   82  A    between atoms: _202  and  _204
REMARK   83  A    between atoms: _204  and  _205
REMARK   84  A    between atoms: _204  and  _207
REMARK   85  A    between atoms: _210  and  _212
REMARK   86  A    between atoms: _212  and  _213
REMARK   87  A    between atoms: _212  and  _215
REMARK   88  A    between atoms: _215  and  _216
REMARK   89  A    between atoms: _216  and  _217
REMARK   90  A    between atoms: _222  and  _224
REMARK   91  A    between atoms: _224  and  _225
REMARK   92  A    between atoms: _224  and  _227
REMARK   93  A    between atoms: _227  and  _228
REMARK   94  A    between atoms: _234  and  _236
REMARK   95  A    between atoms: _236  and  _237
REMARK   96  A    between atoms: _236  and  _239
REMARK   97  A    between atoms: _239  and  _240
REMARK   98  A    between atoms: _243  and  _245
REMARK   99  A    between atoms: _245  and  _246
REMARK  100  A    between atoms: _245  and  _248
REMARK  101  A    between atoms: _248  and  _249
REMARK  102  A    between atoms: _252  and  _254
REMARK  103  A    between atoms: _254  and  _255
REMARK  104  A    between atoms: _254  and  _257
REMARK  105  A    between atoms: _257  and  _258
REMARK  106  A    between atoms: _258  and  _259
REMARK  107  A    between atoms: _262  and  _264
REMARK  108  A    between atoms: _264  and  _265
REMARK  109  A    between atoms: _267  and  _269
REMARK  110  A    between atoms: _269  and  _270
REMARK  111  A    between atoms: _269  and  _272
REMARK  112  A    between atoms: _272  and  _273
REMARK  113  A    between atoms: _276  and  _278
REMARK  114  A    between atoms: _278  and  _279
REMARK  115  A    between atoms: _278  and  _281
REMARK  116  A    between atoms: _281  and  _282
REMARK  117  A    between atoms: _285  and  _287
REMARK  118  A    between atoms: _287  and  _288
REMARK  119  A    between atoms: _287  and  _290
REMARK  120  A    between atoms: _290  and  _291
REMARK  121  A    between atoms: _291  and  _292
REMARK  122  A    between atoms: _294  and  _296
REMARK  123  A    between atoms: _296  and  _297
REMARK  124  A    between atoms: _296  and  _299
REMARK  125  A    between atoms: _299  and  _300
REMARK  126  A    between atoms: _300  and  _301
REMARK  127  A    between atoms: _301  and  _302
REMARK  128  A    between atoms: _302  and  _303
REMARK  129  A    between atoms: _307  and  _309
REMARK  130  A    between atoms: _309  and  _310
REMARK  131  A    between atoms: _309  and  _312
REMARK  132  A    between atoms: _312  and  _313
REMARK  133  A    between atoms: _319  and  _321
REMARK  134  A    between atoms: _321  and  _322
REMARK  135  A    between atoms: _321  and  _324
REMARK  136  A    between atoms: _327  and  _329
REMARK  137  A    between atoms: _329  and  _330
REMARK  138  A    between atoms: _329  and  _332
REMARK  139  A    between atoms: _332  and  _333
REMARK  140  A    between atoms: _336  and  _338
REMARK  141  A    between atoms: _338  and  _339
REMARK  142  A    between atoms: _338  and  _341
REMARK  143  A    between atoms: _341  and  _342
REMARK  144  A    between atoms: _344  and  _346
REMARK  145  A    between atoms: _346  and  _347
REMARK  146  A    between atoms: _346  and  _349
REMARK  147  A    between atoms: _349  and  _350
REMARK  148  A    between atoms: _353  and  _355
REMARK  149  A    between atoms: _355  and  _356
REMARK  150  A    between atoms: _358  and  _360
REMARK  151  A    between atoms: _360  and  _361
REMARK  152  A    between atoms: _360  and  _363
REMARK  153  A    between atoms: _363  and  _364
REMARK  154  A    between atoms: _367  and  _369
REMARK  155  A    between atoms: _369  and  _370
REMARK  156  A    between atoms: _369  and  _372
REMARK  157  A    between atoms: _375  and  _376
REMARK  158  A    between atoms: _381  and  _383
REMARK  159  A    between atoms: _383  and  _384
REMARK  160  A    between atoms: _383  and  _386
REMARK  161  A    between atoms: _386  and  _387
REMARK  162  A    between atoms: _390  and  _392
REMARK  163  A    between atoms: _392  and  _393
REMARK  164  A    between atoms: _392  and  _395
REMARK  165  A    between atoms: _398  and  _400
REMARK  166  A    between atoms: _400  and  _401
REMARK  167  A    between atoms: _400  and  _403
REMARK  168  A    between atoms: _406  and  _408
REMARK  169  A    between atoms: _408  and  _409
REMARK  170  A    between atoms: _408  and  _411
REMARK  171  A    between atoms: _411  and  _412
REMARK  172  A    between atoms: _416  and  _417
REMARK  173  A    between atoms: _422  and  _424
REMARK  174  A    between atoms: _424  and  _425
REMARK  175  A    between atoms: _424  and  _427
REMARK  176  A    between atoms: _427  and  _428
REMARK  177  A    between atoms: _433  and  _434
REMARK  178  A    between atoms: _436  and  _438
REMARK  179  A    between atoms: _438  and  _439
REMARK  180  A    between atoms: _438  and  _441
REMARK  181  A    between atoms: _441  and  _442
REMARK  182  A    between atoms: _442  and  _443
REMARK  183  A    between atoms: _445  and  _447
REMARK  184  A    between atoms: _447  and  _448
REMARK  185  A    between atoms: _447  and  _450
REMARK  186  A    between atoms: _450  and  _451
REMARK  187  A    between atoms: _451  and  _452
REMARK  188  A    between atoms: _452  and  _453
REMARK  189  A    between atoms: _453  and  _454
REMARK  190  A    between atoms: _458  and  _460
REMARK  191  A    between atoms: _460  and  _461
REMARK  192  A    between atoms: _460  and  _463
REMARK  193  A    between atoms: _463  and  _464
REMARK  194  A    between atoms: _469  and  _471
REMARK  195  A    between atoms: _471  and  _472
REMARK  196  A    between atoms: _474  and  _476
REMARK  197  A    between atoms: _476  and  _477
REMARK  198  A    between atoms: _476  and  _479
REMARK  199  A    between atoms: _479  and  _480
REMARK  200  A    between atoms: _483  and  _485
REMARK  201  A    between atoms: _485  and  _486
REMARK  202  A    between atoms: _485  and  _488
REMARK  203  A    between atoms: _488  and  _489
REMARK  204  A    between atoms: _494  and  _496
REMARK  205  A    between atoms: _496  and  _497
REMARK  206  A    between atoms: _496  and  _499
REMARK  207  A    between atoms: _499  and  _500
REMARK  208  A    between atoms: _503  and  _505
REMARK  209  A    between atoms: _505  and  _506
REMARK  210  A    between atoms: _505  and  _508
REMARK  211  A    between atoms: _508  and  _509
REMARK  212  A    between atoms: _515  and  _517
REMARK  213  A    between atoms: _517  and  _518
REMARK  214  A    between atoms: _517  and  _520
REMARK  215  A    between atoms: _523  and  _525
REMARK  216  A    between atoms: _525  and  _526
REMARK  217  A    between atoms: _525  and  _528
REMARK  218  A    between atoms: _528  and  _529
REMARK  219  A    between atoms: _534  and  _536
REMARK  220  A    between atoms: _536  and  _537
REMARK  221  A    between atoms: _536  and  _539
REMARK  222  A    between atoms: _539  and  _540
REMARK  223  A    between atoms: _540  and  _541
REMARK  224  A    between atoms: _541  and  _542
REMARK  225  A    between atoms: _551  and  _553
REMARK  226  A    between atoms: _553  and  _554
REMARK  227  A    between atoms: _553  and  _556
REMARK  228  A    between atoms: _556  and  _557
REMARK  229  A    between atoms: _562  and  _564
REMARK  230  A    between atoms: _564  and  _565
REMARK  231  A    between atoms: _564  and  _567
REMARK  232  A    between atoms: _569  and  _571
REMARK  233  A    between atoms: _571  and  _572
REMARK  234  A    between atoms: _571  and  _574
REMARK  235  A    between atoms: _574  and  _575
REMARK  236  A    between atoms: _575  and  _576
REMARK  237  A    between atoms: _578  and  _580
REMARK  238  A    between atoms: _580  and  _581
REMARK  239  A    between atoms: _580  and  _583
REMARK  240  A    between atoms: _583  and  _584
REMARK  241  A    between atoms: _587  and  _589
REMARK  242  A    between atoms: _589  and  _590
REMARK  243  A    between atoms: _589  and  _592
REMARK  244  A    between atoms: _592  and  _593
REMARK  245  A    between atoms: _593  and  _594
REMARK  246  A    between atoms: _594  and  _595
REMARK  247  A    between atoms: _595  and  _596
REMARK  248  A    between atoms: _600  and  _602
REMARK  249  A    between atoms: _602  and  _603
REMARK  250  A    between atoms: _602  and  _605
REMARK  251  A    between atoms: _608  and  _610
REMARK  252  A    between atoms: _610  and  _611
REMARK  253  A    between atoms: _614  and  _616
REMARK  254  A    between atoms: _616  and  _617
REMARK  255  A    between atoms: _616  and  _619
REMARK  256  A    between atoms: _619  and  _620
REMARK  257  A    between atoms: _623  and  _625
REMARK  258  A    between atoms: _625  and  _626
REMARK  259  A    between atoms: _625  and  _628
REMARK  260  A    between atoms: _628  and  _629
REMARK  261  A    between atoms: _635  and  _637
REMARK  262  A    between atoms: _637  and  _638
REMARK                            x       y       z     vdW  Elec       q    Type
REMARK                         _______ _______ _______ _____ _____    ______ ____
ROOT
ATOM      1  O   HOH     1      16.891  -3.830  14.067  0.00  0.00    +0.000 OA
ENDROOT
TORSDOF 0
REMARK  Name = ../refined-set-2016/3u6i/3u6i_pocket.pdb
REMARK  262 active torsions:
REMARK  status: ('A' for Active; 'I' for Inactive)
REMARK    1  A    between atoms: _1  and  _3
REMARK    2  A    between atoms: _3  and  _4
REMARK    3  A    between atoms: _3  and  _6
REMARK    4  A    between atoms: _9  and  _11
REMARK    5  A    between atoms: _11  and  _12
REMARK    6  A    between atoms: _11  and  _14
REMARK    7  A    between atoms: _17  and  _19
REMARK    8  A    between atoms: _19  and  _20
REMARK    9  A    between atoms: _19  and  _22
REMARK   10  A    between atoms: _22  and  _23
REMARK   11  A    between atoms: _26  and  _28
REMARK   12  A    between atoms: _28  and  _29
REMARK   13  A    between atoms: _31  and  _33
REMARK   14  A    between atoms: _33  and  _34
REMARK   15  A    between atoms: _33  and  _36
REMARK   16  A    between atoms: _36  and  _37
REMARK   17  A    between atoms: _37  and  _38
REMARK   18  A    between atoms: _38  and  _39
REMARK   19  A    between atoms: _48  and  _50
REMARK   20  A    between atoms: _50  and  _51
REMARK   21  A    between atoms: _53  and  _55
REMARK   22  A    between atoms: _55  and  _56
REMARK   23  A    between atoms: _55  and  _58
REMARK   24  A    between atoms: _58  and  _59
REMARK   25  A    between atoms: _64  and  _66
REMARK   26  A    between atoms: _66  and  _67
REMARK   27  A    between atoms: _66  and  _69
REMARK   28  A    between atoms: _69  and  _70
REMARK   29  A    between atoms: _76  and  _78
REMARK   30  A    between atoms: _78  and  _79
REMARK   31  A    between atoms: _81  and  _83
REMARK   32  A    between atoms: _83  and  _84
REMARK   33  A    between atoms: _83  and  _86
REMARK   34  A    between atoms: _88  and  _90
REMARK   35  A    between atoms: _90  and  _91
REMARK   36  A    between atoms: _90  and  _93
REMARK   37  A    between atoms: _96  and  _98
REMARK   38  A    between atoms: _98  and  _99
REMARK   39  A    between atoms: _98  and  _101
REMARK   40  A    between atoms: _101  and  _102
REMARK   41  A    between atoms: _107  and  _108
REMARK   42  A    between atoms: _110  and  _112
REMARK   43  A    between atoms: _112  and  _113
REMARK   44  A    between atoms: _112  and  _115
REMARK   45  A    between atoms: _115  and  _116
REMARK   46  A    between atoms: _121  and  _123
REMARK   47  A    between atoms: _123  and  _124
REMARK   48  A    between atoms: _123  and  _126
REMARK   49  A    between atoms: _126  and  _127
REMARK   50  A    between atoms: _132  and  _134
REMARK   51  A    between atoms: _134  and  _135
REMARK   52  A    between atoms: _134  and  _137
REMARK   53  A    between atoms: _139  and  _141
REMARK   54  A    between atoms: _141  and  _142
REMARK   55  A    between atoms: _145  and  _147
REMARK   56  A    between atoms: _147  and  _148
REMARK   57  A    between atoms: _147  and  _150
REMARK   58  A    between atoms: _153  and  _155
REMARK   59  A    between atoms: _155  and  _156
REMARK   60  A    between atoms: _155  and  _158
REMARK   61  A    between atoms: _158  and  _159
REMARK   62  A    between atoms: _159  and  _160
REMARK   63  A    between atoms: _160  and  _161
REMARK   64  A    between atoms: _161  and  _162
REMARK   65  A    between atoms: _166  and  _168
REMARK   66  A    between atoms: _168  and  _169
REMARK   67  A    between atoms: _168  and  _171
REMARK   68  A    between atoms: _171  and  _172
REMARK   69  A    between atoms: _174  and  _176
REMARK   70  A    between atoms: _176  and  _177
REMARK   71  A    between atoms: _176  and  _179
REMARK   72  A    between atoms: _179  and  _180
REMARK   73  A    between atoms: _183  and  _185
REMARK   74  A    between atoms: _185  and  _186
REMARK   75  A    between atoms: _185  and  _188
REMARK   76  A    between atoms: _188  and  _189
REMARK   77  A    between atoms: _192  and  _194
REMARK   78  A    between atoms: _194  and  _195
REMARK   79  A    between atoms: _194  and  _197
REMARK   80  A    between atoms: _197  and  _198
REMARK   81  A    between atoms: _198  and  _199
REMARK   82  A    between atoms: _202  and  _204
REMARK   83  A    between atoms: _204  and  _205
REMARK   84  A    between atoms: _204  and  _207
REMARK   85  A    between atoms: _210  and  _212
REMARK   86  A    between atoms: _212  and  _213
REMARK   87  A    between atoms: _212  and  _215
REMARK   88  A    between atoms: _215  and  _216
REMARK   89  A    between atoms: _216  and  _217
REMARK   90  A    between atoms: _222  and  _224
REMARK   91  A    between atoms: _224  and  _225
REMARK   92  A    between atoms: _224  and  _227
REMARK   93  A    between atoms: _227  and  _228
REMARK   94  A    between atoms: _234  and  _236
REMARK   95  A    between atoms: _236  and  _237
REMARK   96  A    between atoms: _236  and  _239
REMARK   97  A    between atoms: _239  and  _240
REMARK   98  A    between atoms: _243  and  _245
REMARK   99  A    between atoms: _245  and  _246
REMARK  100  A    between atoms: _245  and  _248
REMARK  101  A    between atoms: _248  and  _249
REMARK  102  A    between atoms: _252  and  _254
REMARK  103  A    between atoms: _254  and  _255
REMARK  104  A    between atoms: _254  and  _257
REMARK  105  A    between atoms: _257  and  _258
REMARK  106  A    between atoms: _258  and  _259
REMARK  107  A    between atoms: _262  and  _264
REMARK  108  A    between atoms: _264  and  _265
REMARK  109  A    between atoms: _267  and  _269
REMARK  110  A    between atoms: _269  and  _270
REMARK  111  A    between atoms: _269  and  _272
REMARK  112  A    between atoms: _272  and  _273
REMARK  113  A    between atoms: _276  and  _278
REMARK  114  A    between atoms: _278  and  _279
REMARK  115  A    between atoms: _278  and  _281
REMARK  116  A    between atoms: _281  and  _282
REMARK  117  A    between atoms: _285  and  _287
REMARK  118  A    between atoms: _287  and  _288
REMARK  119  A    between atoms: _287  and  _290
REMARK  120  A    between atoms: _290  and  _291
REMARK  121  A    between atoms: _291  and  _292
REMARK  122  A    between atoms: _294  and  _296
REMARK  123  A    between atoms: _296  and  _297
REMARK  124  A    between atoms: _296  and  _299
REMARK  125  A    between atoms: _299  and  _300
REMARK  126  A    between atoms: _300  and  _301
REMARK  127  A    between atoms: _301  and  _302
REMARK  128  A    between atoms: _302  and  _303
REMARK  129  A    between atoms: _307  and  _309
REMARK  130  A    between atoms: _309  and  _310
REMARK  131  A    between atoms: _309  and  _312
REMARK  132  A    between atoms: _312  and  _313
REMARK  133  A    between atoms: _319  and  _321
REMARK  134  A    between atoms: _321  and  _322
REMARK  135  A    between atoms: _321  and  _324
REMARK  136  A    between atoms: _327  and  _329
REMARK  137  A    between atoms: _329  and  _330
REMARK  138  A    between atoms: _329  and  _332
REMARK  139  A    between atoms: _332  and  _333
REMARK  140  A    between atoms: _336  and  _338
REMARK  141  A    between atoms: _338  and  _339
REMARK  142  A    between atoms: _338  and  _341
REMARK  143  A    between atoms: _341  and  _342
REMARK  144  A    between atoms: _344  and  _346
REMARK  145  A    between atoms: _346  and  _347
REMARK  146  A    between atoms: _346  and  _349
REMARK  147  A    between atoms: _349  and  _350
REMARK  148  A    between atoms: _353  and  _355
REMARK  149  A    between atoms: _355  and  _356
REMARK  150  A    between atoms: _358  and  _360
REMARK  151  A    between atoms: _360  and  _361
REMARK  152  A    between atoms: _360  and  _363
REMARK  153  A    between atoms: _363  and  _364
REMARK  154  A    between atoms: _367  and  _369
REMARK  155  A    between atoms: _369  and  _370
REMARK  156  A    between atoms: _369  and  _372
REMARK  157  A    between atoms: _375  and  _376
REMARK  158  A    between atoms: _381  and  _383
REMARK  159  A    between atoms: _383  and  _384
REMARK  160  A    between atoms: _383  and  _386
REMARK  161  A    between atoms: _386  and  _387
REMARK  162  A    between atoms: _390  and  _392
REMARK  163  A    between atoms: _392  and  _393
REMARK  164  A    between atoms: _392  and  _395
REMARK  165  A    between atoms: _398  and  _400
REMARK  166  A    between atoms: _400  and  _401
REMARK  167  A    between atoms: _400  and  _403
REMARK  168  A    between atoms: _406  and  _408
REMARK  169  A    between atoms: _408  and  _409
REMARK  170  A    between atoms: _408  and  _411
REMARK  171  A    between atoms: _411  and  _412
REMARK  172  A    between atoms: _416  and  _417
REMARK  173  A    between atoms: _422  and  _424
REMARK  174  A    between atoms: _424  and  _425
REMARK  175  A    between atoms: _424  and  _427
REMARK  176  A    between atoms: _427  and  _428
REMARK  177  A    between atoms: _433  and  _434
REMARK  178  A    between atoms: _436  and  _438
REMARK  179  A    between atoms: _438  and  _439
REMARK  180  A    between atoms: _438  and  _441
REMARK  181  A    between atoms: _441  and  _442
REMARK  182  A    between atoms: _442  and  _443
REMARK  183  A    between atoms: _445  and  _447
REMARK  184  A    between atoms: _447  and  _448
REMARK  185  A    between atoms: _447  and  _450
REMARK  186  A    between atoms: _450  and  _451
REMARK  187  A    between atoms: _451  and  _452
REMARK  188  A    between atoms: _452  and  _453
REMARK  189  A    between atoms: _453  and  _454
REMARK  190  A    between atoms: _458  and  _460
REMARK  191  A    between atoms: _460  and  _461
REMARK  192  A    between atoms: _460  and  _463
REMARK  193  A    between atoms: _463  and  _464
REMARK  194  A    between atoms: _469  and  _471
REMARK  195  A    between atoms: _471  and  _472
REMARK  196  A    between atoms: _474  and  _476
REMARK  197  A    between atoms: _476  and  _477
REMARK  198  A    between atoms: _476  and  _479
REMARK  199  A    between atoms: _479  and  _480
REMARK  200  A    between atoms: _483  and  _485
REMARK  201  A    between atoms: _485  and  _486
REMARK  202  A    between atoms: _485  and  _488
REMARK  203  A    between atoms: _488  and  _489
REMARK  204  A    between atoms: _494  and  _496
REMARK  205  A    between atoms: _496  and  _497
REMARK  206  A    between atoms: _496  and  _499
REMARK  207  A    between atoms: _499  and  _500
REMARK  208  A    between atoms: _503  and  _505
REMARK  209  A    between atoms: _505  and  _506
REMARK  210  A    between atoms: _505  and  _508
REMARK  211  A    between atoms: _508  and  _509
REMARK  212  A    between atoms: _515  and  _517
REMARK  213  A    between atoms: _517  and  _518
REMARK  214  A    between atoms: _517  and  _520
REMARK  215  A    between atoms: _523  and  _525
REMARK  216  A    between atoms: _525  and  _526
REMARK  217  A    between atoms: _525  and  _528
REMARK  218  A    between atoms: _528  and  _529
REMARK  219  A    between atoms: _534  and  _536
REMARK  220  A    between atoms: _536  and  _537
REMARK  221  A    between atoms: _536  and  _539
REMARK  222  A    between atoms: _539  and  _540
REMARK  223  A    between atoms: _540  and  _541
REMARK  224  A    between atoms: _541  and  _542
REMARK  225  A    between atoms: _551  and  _553
REMARK  226  A    between atoms: _553  and  _554
REMARK  227  A    between atoms: _553  and  _556
REMARK  228  A    between atoms: _556  and  _557
REMARK  229  A    between atoms: _562  and  _564
REMARK  230  A    between atoms: _564  and  _565
REMARK  231  A    between atoms: _564  and  _567
REMARK  232  A    between atoms: _569  and  _571
REMARK  233  A    between atoms: _571  and  _572
REMARK  234  A    between atoms: _571  and  _574
REMARK  235  A    between atoms: _574  and  _575
REMARK  236  A    between atoms: _575  and  _576
REMARK  237  A    between atoms: _578  and  _580
REMARK  238  A    between atoms: _580  and  _581
REMARK  239  A    between atoms: _580  and  _583
REMARK  240  A    between atoms: _583  and  _584
REMARK  241  A    between atoms: _587  and  _589
REMARK  242  A    between atoms: _589  and  _590
REMARK  243  A    between atoms: _589  and  _592
REMARK  244  A    between atoms: _592  and  _593
REMARK  245  A    between atoms: _593  and  _594
REMARK  246  A    between atoms: _594  and  _595
REMARK  247  A    between atoms: _595  and  _596
REMARK  248  A    between atoms: _600  and  _602
REMARK  249  A    between atoms: _602  and  _603
REMARK  250  A    between atoms: _602  and  _605
REMARK  251  A    between atoms: _608  and  _610
REMARK  252  A    between atoms: _610  and  _611
REMARK  253  A    between atoms: _614  and  _616
REMARK  254  A    between atoms: _616  and  _617
REMARK  255  A    between atoms: _616  and  _619
REMARK  256  A    between atoms: _619  and  _620
REMARK  257  A    between atoms: _623  and  _625
REMARK  258  A    between atoms: _625  and  _626
REMARK  259  A    between atoms: _625  and  _628
REMARK  260  A    between atoms: _628  and  _629
REMARK  261  A    between atoms: _635  and  _637
REMARK  262  A    between atoms: _637  and  _638
REMARK                            x       y       z     vdW  Elec       q    Type
REMARK                         _______ _______ _______ _____ _____    ______ ____
ROOT
ATOM      1  O   HOH     1      17.910   3.365  10.178  0.00  0.00    +0.000 OA
ENDROOT
TORSDOF 0
REMARK  Name = ../refined-set-2016/3u6i/3u6i_pocket.pdb
REMARK  262 active torsions:
REMARK  status: ('A' for Active; 'I' for Inactive)
REMARK    1  A    between atoms: _1  and  _3
REMARK    2  A    between atoms: _3  and  _4
REMARK    3  A    between atoms: _3  and  _6
REMARK    4  A    between atoms: _9  and  _11
REMARK    5  A    between atoms: _11  and  _12
REMARK    6  A    between atoms: _11  and  _14
REMARK    7  A    between atoms: _17  and  _19
REMARK    8  A    between atoms: _19  and  _20
REMARK    9  A    between atoms: _19  and  _22
REMARK   10  A    between atoms: _22  and  _23
REMARK   11  A    between atoms: _26  and  _28
REMARK   12  A    between atoms: _28  and  _29
REMARK   13  A    between atoms: _31  and  _33
REMARK   14  A    between atoms: _33  and  _34
REMARK   15  A    between atoms: _33  and  _36
REMARK   16  A    between atoms: _36  and  _37
REMARK   17  A    between atoms: _37  and  _38
REMARK   18  A    between atoms: _38  and  _39
REMARK   19  A    between atoms: _48  and  _50
REMARK   20  A    between atoms: _50  and  _51
REMARK   21  A    between atoms: _53  and  _55
REMARK   22  A    between atoms: _55  and  _56
REMARK   23  A    between atoms: _55  and  _58
REMARK   24  A    between atoms: _58  and  _59
REMARK   25  A    between atoms: _64  and  _66
REMARK   26  A    between atoms: _66  and  _67
REMARK   27  A    between atoms: _66  and  _69
REMARK   28  A    between atoms: _69  and  _70
REMARK   29  A    between atoms: _76  and  _78
REMARK   30  A    between atoms: _78  and  _79
REMARK   31  A    between atoms: _81  and  _83
REMARK   32  A    between atoms: _83  and  _84
REMARK   33  A    between atoms: _83  and  _86
REMARK   34  A    between atoms: _88  and  _90
REMARK   35  A    between atoms: _90  and  _91
REMARK   36  A    between atoms: _90  and  _93
REMARK   37  A    between atoms: _96  and  _98
REMARK   38  A    between atoms: _98  and  _99
REMARK   39  A    between atoms: _98  and  _101
REMARK   40  A    between atoms: _101  and  _102
REMARK   41  A    between atoms: _107  and  _108
REMARK   42  A    between atoms: _110  and  _112
REMARK   43  A    between atoms: _112  and  _113
REMARK   44  A    between atoms: _112  and  _115
REMARK   45  A    between atoms: _115  and  _116
REMARK   46  A    between atoms: _121  and  _123
REMARK   47  A    between atoms: _123  and  _124
REMARK   48  A    between atoms: _123  and  _126
REMARK   49  A    between atoms: _126  and  _127
REMARK   50  A    between atoms: _132  and  _134
REMARK   51  A    between atoms: _134  and  _135
REMARK   52  A    between atoms: _134  and  _137
REMARK   53  A    between atoms: _139  and  _141
REMARK   54  A    between atoms: _141  and  _142
REMARK   55  A    between atoms: _145  and  _147
REMARK   56  A    between atoms: _147  and  _148
REMARK   57  A    between atoms: _147  and  _150
REMARK   58  A    between atoms: _153  and  _155
REMARK   59  A    between atoms: _155  and  _156
REMARK   60  A    between atoms: _155  and  _158
REMARK   61  A    between atoms: _158  and  _159
REMARK   62  A    between atoms: _159  and  _160
REMARK   63  A    between atoms: _160  and  _161
REMARK   64  A    between atoms: _161  and  _162
REMARK   65  A    between atoms: _166  and  _168
REMARK   66  A    between atoms: _168  and  _169
REMARK   67  A    between atoms: _168  and  _171
REMARK   68  A    between atoms: _171  and  _172
REMARK   69  A    between atoms: _174  and  _176
REMARK   70  A    between atoms: _176  and  _177
REMARK   71  A    between atoms: _176  and  _179
REMARK   72  A    between atoms: _179  and  _180
REMARK   73  A    between atoms: _183  and  _185
REMARK   74  A    between atoms: _185  and  _186
REMARK   75  A    between atoms: _185  and  _188
REMARK   76  A    between atoms: _188  and  _189
REMARK   77  A    between atoms: _192  and  _194
REMARK   78  A    between atoms: _194  and  _195
REMARK   79  A    between atoms: _194  and  _197
REMARK   80  A    between atoms: _197  and  _198
REMARK   81  A    between atoms: _198  and  _199
REMARK   82  A    between atoms: _202  and  _204
REMARK   83  A    between atoms: _204  and  _205
REMARK   84  A    between atoms: _204  and  _207
REMARK   85  A    between atoms: _210  and  _212
REMARK   86  A    between atoms: _212  and  _213
REMARK   87  A    between atoms: _212  and  _215
REMARK   88  A    between atoms: _215  and  _216
REMARK   89  A    between atoms: _216  and  _217
REMARK   90  A    between atoms: _222  and  _224
REMARK   91  A    between atoms: _224  and  _225
REMARK   92  A    between atoms: _224  and  _227
REMARK   93  A    between atoms: _227  and  _228
REMARK   94  A    between atoms: _234  and  _236
REMARK   95  A    between atoms: _236  and  _237
REMARK   96  A    between atoms: _236  and  _239
REMARK   97  A    between atoms: _239  and  _240
REMARK   98  A    between atoms: _243  and  _245
REMARK   99  A    between atoms: _245  and  _246
REMARK  100  A    between atoms: _245  and  _248
REMARK  101  A    between atoms: _248  and  _249
REMARK  102  A    between atoms: _252  and  _254
REMARK  103  A    between atoms: _254  and  _255
REMARK  104  A    between atoms: _254  and  _257
REMARK  105  A    between atoms: _257  and  _258
REMARK  106  A    between atoms: _258  and  _259
REMARK  107  A    between atoms: _262  and  _264
REMARK  108  A    between atoms: _264  and  _265
REMARK  109  A    between atoms: _267  and  _269
REMARK  110  A    between atoms: _269  and  _270
REMARK  111  A    between atoms: _269  and  _272
REMARK  112  A    between atoms: _272  and  _273
REMARK  113  A    between atoms: _276  and  _278
REMARK  114  A    between atoms: _278  and  _279
REMARK  115  A    between atoms: _278  and  _281
REMARK  116  A    between atoms: _281  and  _282
REMARK  117  A    between atoms: _285  and  _287
REMARK  118  A    between atoms: _287  and  _288
REMARK  119  A    between atoms: _287  and  _290
REMARK  120  A    between atoms: _290  and  _291
REMARK  121  A    between atoms: _291  and  _292
REMARK  122  A    between atoms: _294  and  _296
REMARK  123  A    between atoms: _296  and  _297
REMARK  124  A    between atoms: _296  and  _299
REMARK  125  A    between atoms: _299  and  _300
REMARK  126  A    between atoms: _300  and  _301
REMARK  127  A    between atoms: _301  and  _302
REMARK  128  A    between atoms: _302  and  _303
REMARK  129  A    between atoms: _307  and  _309
REMARK  130  A    between atoms: _309  and  _310
REMARK  131  A    between atoms: _309  and  _312
REMARK  132  A    between atoms: _312  and  _313
REMARK  133  A    between atoms: _319  and  _321
REMARK  134  A    between atoms: _321  and  _322
REMARK  135  A    between atoms: _321  and  _324
REMARK  136  A    between atoms: _327  and  _329
REMARK  137  A    between atoms: _329  and  _330
REMARK  138  A    between atoms: _329  and  _332
REMARK  139  A    between atoms: _332  and  _333
REMARK  140  A    between atoms: _336  and  _338
REMARK  141  A    between atoms: _338  and  _339
REMARK  142  A    between atoms: _338  and  _341
REMARK  143  A    between atoms: _341  and  _342
REMARK  144  A    between atoms: _344  and  _346
REMARK  145  A    between atoms: _346  and  _347
REMARK  146  A    between atoms: _346  and  _349
REMARK  147  A    between atoms: _349  and  _350
REMARK  148  A    between atoms: _353  and  _355
REMARK  149  A    between atoms: _355  and  _356
REMARK  150  A    between atoms: _358  and  _360
REMARK  151  A    between atoms: _360  and  _361
REMARK  152  A    between atoms: _360  and  _363
REMARK  153  A    between atoms: _363  and  _364
REMARK  154  A    between atoms: _367  and  _369
REMARK  155  A    between atoms: _369  and  _370
REMARK  156  A    between atoms: _369  and  _372
REMARK  157  A    between atoms: _375  and  _376
REMARK  158  A    between atoms: _381  and  _383
REMARK  159  A    between atoms: _383  and  _384
REMARK  160  A    between atoms: _383  and  _386
REMARK  161  A    between atoms: _386  and  _387
REMARK  162  A    between atoms: _390  and  _392
REMARK  163  A    between atoms: _392  and  _393
REMARK  164  A    between atoms: _392  and  _395
REMARK  165  A    between atoms: _398  and  _400
REMARK  166  A    between atoms: _400  and  _401
REMARK  167  A    between atoms: _400  and  _403
REMARK  168  A    between atoms: _406  and  _408
REMARK  169  A    between atoms: _408  and  _409
REMARK  170  A    between atoms: _408  and  _411
REMARK  171  A    between atoms: _411  and  _412
REMARK  172  A    between atoms: _416  and  _417
REMARK  173  A    between atoms: _422  and  _424
REMARK  174  A    between atoms: _424  and  _425
REMARK  175  A    between atoms: _424  and  _427
REMARK  176  A    between atoms: _427  and  _428
REMARK  177  A    between atoms: _433  and  _434
REMARK  178  A    between atoms: _436  and  _438
REMARK  179  A    between atoms: _438  and  _439
REMARK  180  A    between atoms: _438  and  _441
REMARK  181  A    between atoms: _441  and  _442
REMARK  182  A    between atoms: _442  and  _443
REMARK  183  A    between atoms: _445  and  _447
REMARK  184  A    between atoms: _447  and  _448
REMARK  185  A    between atoms: _447  and  _450
REMARK  186  A    between atoms: _450  and  _451
REMARK  187  A    between atoms: _451  and  _452
REMARK  188  A    between atoms: _452  and  _453
REMARK  189  A    between atoms: _453  and  _454
REMARK  190  A    between atoms: _458  and  _460
REMARK  191  A    between atoms: _460  and  _461
REMARK  192  A    between atoms: _460  and  _463
REMARK  193  A    between atoms: _463  and  _464
REMARK  194  A    between atoms: _469  and  _471
REMARK  195  A    between atoms: _471  and  _472
REMARK  196  A    between atoms: _474  and  _476
REMARK  197  A    between atoms: _476  and  _477
REMARK  198  A    between atoms: _476  and  _479
REMARK  199  A    between atoms: _479  and  _480
REMARK  200  A    between atoms: _483  and  _485
REMARK  201  A    between atoms: _485  and  _486
REMARK  202  A    between atoms: _485  and  _488
REMARK  203  A    between atoms: _488  and  _489
REMARK  204  A    between atoms: _494  and  _496
REMARK  205  A    between atoms: _496  and  _497
REMARK  206  A    between atoms: _496  and  _499
REMARK  207  A    between atoms: _499  and  _500
REMARK  208  A    between atoms: _503  and  _505
REMARK  209  A    between atoms: _505  and  _506
REMARK  210  A    between atoms: _505  and  _508
REMARK  211  A    between atoms: _508  and  _509
REMARK  212  A    between atoms: _515  and  _517
REMARK  213  A    between atoms: _517  and  _518
REMARK  214  A    between atoms: _517  and  _520
REMARK  215  A    between atoms: _523  and  _525
REMARK  216  A    between atoms: _525  and  _526
REMARK  217  A    between atoms: _525  and  _528
REMARK  218  A    between atoms: _528  and  _529
REMARK  219  A    between atoms: _534  and  _536
REMARK  220  A    between atoms: _536  and  _537
REMARK  221  A    between atoms: _536  and  _539
REMARK  222  A    between atoms: _539  and  _540
REMARK  223  A    between atoms: _540  and  _541
REMARK  224  A    between atoms: _541  and  _542
REMARK  225  A    between atoms: _551  and  _553
REMARK  226  A    between atoms: _553  and  _554
REMARK  227  A    between atoms: _553  and  _556
REMARK  228  A    between atoms: _556  and  _557
REMARK  229  A    between atoms: _562  and  _564
REMARK  230  A    between atoms: _564  and  _565
REMARK  231  A    between atoms: _564  and  _567
REMARK  232  A    between atoms: _569  and  _571
REMARK  233  A    between atoms: _571  and  _572
REMARK  234  A    between atoms: _571  and  _574
REMARK  235  A    between atoms: _574  and  _575
REMARK  236  A    between atoms: _575  and  _576
REMARK  237  A    between atoms: _578  and  _580
REMARK  238  A    between atoms: _580  and  _581
REMARK  239  A    between atoms: _580  and  _583
REMARK  240  A    between atoms: _583  and  _584
REMARK  241  A    between atoms: _587  and  _589
REMARK  242  A    between atoms: _589  and  _590
REMARK  243  A    between atoms: _589  and  _592
REMARK  244  A    between atoms: _592  and  _593
REMARK  245  A    between atoms: _593  and  _594
REMARK  246  A    between atoms: _594  and  _595
REMARK  247  A    between atoms: _595  and  _596
REMARK  248  A    between atoms: _600  and  _602
REMARK  249  A    between atoms: _602  and  _603
REMARK  250  A    between atoms: _602  and  _605
REMARK  251  A    between atoms: _608  and  _610
REMARK  252  A    between atoms: _610  and  _611
REMARK  253  A    between atoms: _614  and  _616
REMARK  254  A    between atoms: _616  and  _617
REMARK  255  A    between atoms: _616  and  _619
REMARK  256  A    between atoms: _619  and  _620
REMARK  257  A    between atoms: _623  and  _625
REMARK  258  A    between atoms: _625  and  _626
REMARK  259  A    between atoms: _625  and  _628
REMARK  260  A    between atoms: _628  and  _629
REMARK  261  A    between atoms: _635  and  _637
REMARK  262  A    between atoms: _637  and  _638
REMARK                            x       y       z     vdW  Elec       q    Type
REMARK                         _______ _______ _______ _____ _____    ______ ____
ROOT
ATOM      1  O   HOH     1      16.620  -7.693  25.870  0.00  0.00    +0.000 OA
ENDROOT
TORSDOF 0
REMARK  Name = ../refined-set-2016/3u6i/3u6i_pocket.pdb
REMARK  262 active torsions:
REMARK  status: ('A' for Active; 'I' for Inactive)
REMARK    1  A    between atoms: _1  and  _3
REMARK    2  A    between atoms: _3  and  _4
REMARK    3  A    between atoms: _3  and  _6
REMARK    4  A    between atoms: _9  and  _11
REMARK    5  A    between atoms: _11  and  _12
REMARK    6  A    between atoms: _11  and  _14
REMARK    7  A    between atoms: _17  and  _19
REMARK    8  A    between atoms: _19  and  _20
REMARK    9  A    between atoms: _19  and  _22
REMARK   10  A    between atoms: _22  and  _23
REMARK   11  A    between atoms: _26  and  _28
REMARK   12  A    between atoms: _28  and  _29
REMARK   13  A    between atoms: _31  and  _33
REMARK   14  A    between atoms: _33  and  _34
REMARK   15  A    between atoms: _33  and  _36
REMARK   16  A    between atoms: _36  and  _37
REMARK   17  A    between atoms: _37  and  _38
REMARK   18  A    between atoms: _38  and  _39
REMARK   19  A    between atoms: _48  and  _50
REMARK   20  A    between atoms: _50  and  _51
REMARK   21  A    between atoms: _53  and  _55
REMARK   22  A    between atoms: _55  and  _56
REMARK   23  A    between atoms: _55  and  _58
REMARK   24  A    between atoms: _58  and  _59
REMARK   25  A    between atoms: _64  and  _66
REMARK   26  A    between atoms: _66  and  _67
REMARK   27  A    between atoms: _66  and  _69
REMARK   28  A    between atoms: _69  and  _70
REMARK   29  A    between atoms: _76  and  _78
REMARK   30  A    between atoms: _78  and  _79
REMARK   31  A    between atoms: _81  and  _83
REMARK   32  A    between atoms: _83  and  _84
REMARK   33  A    between atoms: _83  and  _86
REMARK   34  A    between atoms: _88  and  _90
REMARK   35  A    between atoms: _90  and  _91
REMARK   36  A    between atoms: _90  and  _93
REMARK   37  A    between atoms: _96  and  _98
REMARK   38  A    between atoms: _98  and  _99
REMARK   39  A    between atoms: _98  and  _101
REMARK   40  A    between atoms: _101  and  _102
REMARK   41  A    between atoms: _107  and  _108
REMARK   42  A    between atoms: _110  and  _112
REMARK   43  A    between atoms: _112  and  _113
REMARK   44  A    between atoms: _112  and  _115
REMARK   45  A    between atoms: _115  and  _116
REMARK   46  A    between atoms: _121  and  _123
REMARK   47  A    between atoms: _123  and  _124
REMARK   48  A    between atoms: _123  and  _126
REMARK   49  A    between atoms: _126  and  _127
REMARK   50  A    between atoms: _132  and  _134
REMARK   51  A    between atoms: _134  and  _135
REMARK   52  A    between atoms: _134  and  _137
REMARK   53  A    between atoms: _139  and  _141
REMARK   54  A    between atoms: _141  and  _142
REMARK   55  A    between atoms: _145  and  _147
REMARK   56  A    between atoms: _147  and  _148
REMARK   57  A    between atoms: _147  and  _150
REMARK   58  A    between atoms: _153  and  _155
REMARK   59  A    between atoms: _155  and  _156
REMARK   60  A    between atoms: _155  and  _158
REMARK   61  A    between atoms: _158  and  _159
REMARK   62  A    between atoms: _159  and  _160
REMARK   63  A    between atoms: _160  and  _161
REMARK   64  A    between atoms: _161  and  _162
REMARK   65  A    between atoms: _166  and  _168
REMARK   66  A    between atoms: _168  and  _169
REMARK   67  A    between atoms: _168  and  _171
REMARK   68  A    between atoms: _171  and  _172
REMARK   69  A    between atoms: _174  and  _176
REMARK   70  A    between atoms: _176  and  _177
REMARK   71  A    between atoms: _176  and  _179
REMARK   72  A    between atoms: _179  and  _180
REMARK   73  A    between atoms: _183  and  _185
REMARK   74  A    between atoms: _185  and  _186
REMARK   75  A    between atoms: _185  and  _188
REMARK   76  A    between atoms: _188  and  _189
REMARK   77  A    between atoms: _192  and  _194
REMARK   78  A    between atoms: _194  and  _195
REMARK   79  A    between atoms: _194  and  _197
REMARK   80  A    between atoms: _197  and  _198
REMARK   81  A    between atoms: _198  and  _199
REMARK   82  A    between atoms: _202  and  _204
REMARK   83  A    between atoms: _204  and  _205
REMARK   84  A    between atoms: _204  and  _207
REMARK   85  A    between atoms: _210  and  _212
REMARK   86  A    between atoms: _212  and  _213
REMARK   87  A    between atoms: _212  and  _215
REMARK   88  A    between atoms: _215  and  _216
REMARK   89  A    between atoms: _216  and  _217
REMARK   90  A    between atoms: _222  and  _224
REMARK   91  A    between atoms: _224  and  _225
REMARK   92  A    between atoms: _224  and  _227
REMARK   93  A    between atoms: _227  and  _228
REMARK   94  A    between atoms: _234  and  _236
REMARK   95  A    between atoms: _236  and  _237
REMARK   96  A    between atoms: _236  and  _239
REMARK   97  A    between atoms: _239  and  _240
REMARK   98  A    between atoms: _243  and  _245
REMARK   99  A    between atoms: _245  and  _246
REMARK  100  A    between atoms: _245  and  _248
REMARK  101  A    between atoms: _248  and  _249
REMARK  102  A    between atoms: _252  and  _254
REMARK  103  A    between atoms: _254  and  _255
REMARK  104  A    between atoms: _254  and  _257
REMARK  105  A    between atoms: _257  and  _258
REMARK  106  A    between atoms: _258  and  _259
REMARK  107  A    between atoms: _262  and  _264
REMARK  108  A    between atoms: _264  and  _265
REMARK  109  A    between atoms: _267  and  _269
REMARK  110  A    between atoms: _269  and  _270
REMARK  111  A    between atoms: _269  and  _272
REMARK  112  A    between atoms: _272  and  _273
REMARK  113  A    between atoms: _276  and  _278
REMARK  114  A    between atoms: _278  and  _279
REMARK  115  A    between atoms: _278  and  _281
REMARK  116  A    between atoms: _281  and  _282
REMARK  117  A    between atoms: _285  and  _287
REMARK  118  A    between atoms: _287  and  _288
REMARK  119  A    between atoms: _287  and  _290
REMARK  120  A    between atoms: _290  and  _291
REMARK  121  A    between atoms: _291  and  _292
REMARK  122  A    between atoms: _294  and  _296
REMARK  123  A    between atoms: _296  and  _297
REMARK  124  A    between atoms: _296  and  _299
REMARK  125  A    between atoms: _299  and  _300
REMARK  126  A    between atoms: _300  and  _301
REMARK  127  A    between atoms: _301  and  _302
REMARK  128  A    between atoms: _302  and  _303
REMARK  129  A    between atoms: _307  and  _309
REMARK  130  A    between atoms: _309  and  _310
REMARK  131  A    between atoms: _309  and  _312
REMARK  132  A    between atoms: _312  and  _313
REMARK  133  A    between atoms: _319  and  _321
REMARK  134  A    between atoms: _321  and  _322
REMARK  135  A    between atoms: _321  and  _324
REMARK  136  A    between atoms: _327  and  _329
REMARK  137  A    between atoms: _329  and  _330
REMARK  138  A    between atoms: _329  and  _332
REMARK  139  A    between atoms: _332  and  _333
REMARK  140  A    between atoms: _336  and  _338
REMARK  141  A    between atoms: _338  and  _339
REMARK  142  A    between atoms: _338  and  _341
REMARK  143  A    between atoms: _341  and  _342
REMARK  144  A    between atoms: _344  and  _346
REMARK  145  A    between atoms: _346  and  _347
REMARK  146  A    between atoms: _346  and  _349
REMARK  147  A    between atoms: _349  and  _350
REMARK  148  A    between atoms: _353  and  _355
REMARK  149  A    between atoms: _355  and  _356
REMARK  150  A    between atoms: _358  and  _360
REMARK  151  A    between atoms: _360  and  _361
REMARK  152  A    between atoms: _360  and  _363
REMARK  153  A    between atoms: _363  and  _364
REMARK  154  A    between atoms: _367  and  _369
REMARK  155  A    between atoms: _369  and  _370
REMARK  156  A    between atoms: _369  and  _372
REMARK  157  A    between atoms: _375  and  _376
REMARK  158  A    between atoms: _381  and  _383
REMARK  159  A    between atoms: _383  and  _384
REMARK  160  A    between atoms: _383  and  _386
REMARK  161  A    between atoms: _386  and  _387
REMARK  162  A    between atoms: _390  and  _392
REMARK  163  A    between atoms: _392  and  _393
REMARK  164  A    between atoms: _392  and  _395
REMARK  165  A    between atoms: _398  and  _400
REMARK  166  A    between atoms: _400  and  _401
REMARK  167  A    between atoms: _400  and  _403
REMARK  168  A    between atoms: _406  and  _408
REMARK  169  A    between atoms: _408  and  _409
REMARK  170  A    between atoms: _408  and  _411
REMARK  171  A    between atoms: _411  and  _412
REMARK  172  A    between atoms: _416  and  _417
REMARK  173  A    between atoms: _422  and  _424
REMARK  174  A    between atoms: _424  and  _425
REMARK  175  A    between atoms: _424  and  _427
REMARK  176  A    between atoms: _427  and  _428
REMARK  177  A    between atoms: _433  and  _434
REMARK  178  A    between atoms: _436  and  _438
REMARK  179  A    between atoms: _438  and  _439
REMARK  180  A    between atoms: _438  and  _441
REMARK  181  A    between atoms: _441  and  _442
REMARK  182  A    between atoms: _442  and  _443
REMARK  183  A    between atoms: _445  and  _447
REMARK  184  A    between atoms: _447  and  _448
REMARK  185  A    between atoms: _447  and  _450
REMARK  186  A    between atoms: _450  and  _451
REMARK  187  A    between atoms: _451  and  _452
REMARK  188  A    between atoms: _452  and  _453
REMARK  189  A    between atoms: _453  and  _454
REMARK  190  A    between atoms: _458  and  _460
REMARK  191  A    between atoms: _460  and  _461
REMARK  192  A    between atoms: _460  and  _463
REMARK  193  A    between atoms: _463  and  _464
REMARK  194  A    between atoms: _469  and  _471
REMARK  195  A    between atoms: _471  and  _472
REMARK  196  A    between atoms: _474  and  _476
REMARK  197  A    between atoms: _476  and  _477
REMARK  198  A    between atoms: _476  and  _479
REMARK  199  A    between atoms: _479  and  _480
REMARK  200  A    between atoms: _483  and  _485
REMARK  201  A    between atoms: _485  and  _486
REMARK  202  A    between atoms: _485  and  _488
REMARK  203  A    between atoms: _488  and  _489
REMARK  204  A    between atoms: _494  and  _496
REMARK  205  A    between atoms: _496  and  _497
REMARK  206  A    between atoms: _496  and  _499
REMARK  207  A    between atoms: _499  and  _500
REMARK  208  A    between atoms: _503  and  _505
REMARK  209  A    between atoms: _505  and  _506
REMARK  210  A    between atoms: _505  and  _508
REMARK  211  A    between atoms: _508  and  _509
REMARK  212  A    between atoms: _515  and  _517
REMARK  213  A    between atoms: _517  and  _518
REMARK  214  A    between atoms: _517  and  _520
REMARK  215  A    between atoms: _523  and  _525
REMARK  216  A    between atoms: _525  and  _526
REMARK  217  A    between atoms: _525  and  _528
REMARK  218  A    between atoms: _528  and  _529
REMARK  219  A    between atoms: _534  and  _536
REMARK  220  A    between atoms: _536  and  _537
REMARK  221  A    between atoms: _536  and  _539
REMARK  222  A    between atoms: _539  and  _540
REMARK  223  A    between atoms: _540  and  _541
REMARK  224  A    between atoms: _541  and  _542
REMARK  225  A    between atoms: _551  and  _553
REMARK  226  A    between atoms: _553  and  _554
REMARK  227  A    between atoms: _553  and  _556
REMARK  228  A    between atoms: _556  and  _557
REMARK  229  A    between atoms: _562  and  _564
REMARK  230  A    between atoms: _564  and  _565
REMARK  231  A    between atoms: _564  and  _567
REMARK  232  A    between atoms: _569  and  _571
REMARK  233  A    between atoms: _571  and  _572
REMARK  234  A    between atoms: _571  and  _574
REMARK  235  A    between atoms: _574  and  _575
REMARK  236  A    between atoms: _575  and  _576
REMARK  237  A    between atoms: _578  and  _580
REMARK  238  A    between atoms: _580  and  _581
REMARK  239  A    between atoms: _580  and  _583
REMARK  240  A    between atoms: _583  and  _584
REMARK  241  A    between atoms: _587  and  _589
REMARK  242  A    between atoms: _589  and  _590
REMARK  243  A    between atoms: _589  and  _592
REMARK  244  A    between atoms: _592  and  _593
REMARK  245  A    between atoms: _593  and  _594
REMARK  246  A    between atoms: _594  and  _595
REMARK  247  A    between atoms: _595  and  _596
REMARK  248  A    between atoms: _600  and  _602
REMARK  249  A    between atoms: _602  and  _603
REMARK  250  A    between atoms: _602  and  _605
REMARK  251  A    between atoms: _608  and  _610
REMARK  252  A    between atoms: _610  and  _611
REMARK  253  A    between atoms: _614  and  _616
REMARK  254  A    between atoms: _616  and  _617
REMARK  255  A    between atoms: _616  and  _619
REMARK  256  A    between atoms: _619  and  _620
REMARK  257  A    between atoms: _623  and  _625
REMARK  258  A    between atoms: _625  and  _626
REMARK  259  A    between atoms: _625  and  _628
REMARK  260  A    between atoms: _628  and  _629
REMARK  261  A    between atoms: _635  and  _637
REMARK  262  A    between atoms: _637  and  _638
REMARK                            x       y       z     vdW  Elec       q    Type
REMARK                         _______ _______ _______ _____ _____    ______ ____
ROOT
ATOM      1  O   HOH     1      13.427  -5.937  28.514  0.00  0.00    +0.000 OA
ENDROOT
TORSDOF 0
REMARK  Name = ../refined-set-2016/3u6i/3u6i_pocket.pdb
REMARK  262 active torsions:
REMARK  status: ('A' for Active; 'I' for Inactive)
REMARK    1  A    between atoms: _1  and  _3
REMARK    2  A    between atoms: _3  and  _4
REMARK    3  A    between atoms: _3  and  _6
REMARK    4  A    between atoms: _9  and  _11
REMARK    5  A    between atoms: _11  and  _12
REMARK    6  A    between atoms: _11  and  _14
REMARK    7  A    between atoms: _17  and  _19
REMARK    8  A    between atoms: _19  and  _20
REMARK    9  A    between atoms: _19  and  _22
REMARK   10  A    between atoms: _22  and  _23
REMARK   11  A    between atoms: _26  and  _28
REMARK   12  A    between atoms: _28  and  _29
REMARK   13  A    between atoms: _31  and  _33
REMARK   14  A    between atoms: _33  and  _34
REMARK   15  A    between atoms: _33  and  _36
REMARK   16  A    between atoms: _36  and  _37
REMARK   17  A    between atoms: _37  and  _38
REMARK   18  A    between atoms: _38  and  _39
REMARK   19  A    between atoms: _48  and  _50
REMARK   20  A    between atoms: _50  and  _51
REMARK   21  A    between atoms: _53  and  _55
REMARK   22  A    between atoms: _55  and  _56
REMARK   23  A    between atoms: _55  and  _58
REMARK   24  A    between atoms: _58  and  _59
REMARK   25  A    between atoms: _64  and  _66
REMARK   26  A    between atoms: _66  and  _67
REMARK   27  A    between atoms: _66  and  _69
REMARK   28  A    between atoms: _69  and  _70
REMARK   29  A    between atoms: _76  and  _78
REMARK   30  A    between atoms: _78  and  _79
REMARK   31  A    between atoms: _81  and  _83
REMARK   32  A    between atoms: _83  and  _84
REMARK   33  A    between atoms: _83  and  _86
REMARK   34  A    between atoms: _88  and  _90
REMARK   35  A    between atoms: _90  and  _91
REMARK   36  A    between atoms: _90  and  _93
REMARK   37  A    between atoms: _96  and  _98
REMARK   38  A    between atoms: _98  and  _99
REMARK   39  A    between atoms: _98  and  _101
REMARK   40  A    between atoms: _101  and  _102
REMARK   41  A    between atoms: _107  and  _108
REMARK   42  A    between atoms: _110  and  _112
REMARK   43  A    between atoms: _112  and  _113
REMARK   44  A    between atoms: _112  and  _115
REMARK   45  A    between atoms: _115  and  _116
REMARK   46  A    between atoms: _121  and  _123
REMARK   47  A    between atoms: _123  and  _124
REMARK   48  A    between atoms: _123  and  _126
REMARK   49  A    between atoms: _126  and  _127
REMARK   50  A    between atoms: _132  and  _134
REMARK   51  A    between atoms: _134  and  _135
REMARK   52  A    between atoms: _134  and  _137
REMARK   53  A    between atoms: _139  and  _141
REMARK   54  A    between atoms: _141  and  _142
REMARK   55  A    between atoms: _145  and  _147
REMARK   56  A    between atoms: _147  and  _148
REMARK   57  A    between atoms: _147  and  _150
REMARK   58  A    between atoms: _153  and  _155
REMARK   59  A    between atoms: _155  and  _156
REMARK   60  A    between atoms: _155  and  _158
REMARK   61  A    between atoms: _158  and  _159
REMARK   62  A    between atoms: _159  and  _160
REMARK   63  A    between atoms: _160  and  _161
REMARK   64  A    between atoms: _161  and  _162
REMARK   65  A    between atoms: _166  and  _168
REMARK   66  A    between atoms: _168  and  _169
REMARK   67  A    between atoms: _168  and  _171
REMARK   68  A    between atoms: _171  and  _172
REMARK   69  A    between atoms: _174  and  _176
REMARK   70  A    between atoms: _176  and  _177
REMARK   71  A    between atoms: _176  and  _179
REMARK   72  A    between atoms: _179  and  _180
REMARK   73  A    between atoms: _183  and  _185
REMARK   74  A    between atoms: _185  and  _186
REMARK   75  A    between atoms: _185  and  _188
REMARK   76  A    between atoms: _188  and  _189
REMARK   77  A    between atoms: _192  and  _194
REMARK   78  A    between atoms: _194  and  _195
REMARK   79  A    between atoms: _194  and  _197
REMARK   80  A    between atoms: _197  and  _198
REMARK   81  A    between atoms: _198  and  _199
REMARK   82  A    between atoms: _202  and  _204
REMARK   83  A    between atoms: _204  and  _205
REMARK   84  A    between atoms: _204  and  _207
REMARK   85  A    between atoms: _210  and  _212
REMARK   86  A    between atoms: _212  and  _213
REMARK   87  A    between atoms: _212  and  _215
REMARK   88  A    between atoms: _215  and  _216
REMARK   89  A    between atoms: _216  and  _217
REMARK   90  A    between atoms: _222  and  _224
REMARK   91  A    between atoms: _224  and  _225
REMARK   92  A    between atoms: _224  and  _227
REMARK   93  A    between atoms: _227  and  _228
REMARK   94  A    between atoms: _234  and  _236
REMARK   95  A    between atoms: _236  and  _237
REMARK   96  A    between atoms: _236  and  _239
REMARK   97  A    between atoms: _239  and  _240
REMARK   98  A    between atoms: _243  and  _245
REMARK   99  A    between atoms: _245  and  _246
REMARK  100  A    between atoms: _245  and  _248
REMARK  101  A    between atoms: _248  and  _249
REMARK  102  A    between atoms: _252  and  _254
REMARK  103  A    between atoms: _254  and  _255
REMARK  104  A    between atoms: _254  and  _257
REMARK  105  A    between atoms: _257  and  _258
REMARK  106  A    between atoms: _258  and  _259
REMARK  107  A    between atoms: _262  and  _264
REMARK  108  A    between atoms: _264  and  _265
REMARK  109  A    between atoms: _267  and  _269
REMARK  110  A    between atoms: _269  and  _270
REMARK  111  A    between atoms: _269  and  _272
REMARK  112  A    between atoms: _272  and  _273
REMARK  113  A    between atoms: _276  and  _278
REMARK  114  A    between atoms: _278  and  _279
REMARK  115  A    between atoms: _278  and  _281
REMARK  116  A    between atoms: _281  and  _282
REMARK  117  A    between atoms: _285  and  _287
REMARK  118  A    between atoms: _287  and  _288
REMARK  119  A    between atoms: _287  and  _290
REMARK  120  A    between atoms: _290  and  _291
REMARK  121  A    between atoms: _291  and  _292
REMARK  122  A    between atoms: _294  and  _296
REMARK  123  A    between atoms: _296  and  _297
REMARK  124  A    between atoms: _296  and  _299
REMARK  125  A    between atoms: _299  and  _300
REMARK  126  A    between atoms: _300  and  _301
REMARK  127  A    between atoms: _301  and  _302
REMARK  128  A    between atoms: _302  and  _303
REMARK  129  A    between atoms: _307  and  _309
REMARK  130  A    between atoms: _309  and  _310
REMARK  131  A    between atoms: _309  and  _312
REMARK  132  A    between atoms: _312  and  _313
REMARK  133  A    between atoms: _319  and  _321
REMARK  134  A    between atoms: _321  and  _322
REMARK  135  A    between atoms: _321  and  _324
REMARK  136  A    between atoms: _327  and  _329
REMARK  137  A    between atoms: _329  and  _330
REMARK  138  A    between atoms: _329  and  _332
REMARK  139  A    between atoms: _332  and  _333
REMARK  140  A    between atoms: _336  and  _338
REMARK  141  A    between atoms: _338  and  _339
REMARK  142  A    between atoms: _338  and  _341
REMARK  143  A    between atoms: _341  and  _342
REMARK  144  A    between atoms: _344  and  _346
REMARK  145  A    between atoms: _346  and  _347
REMARK  146  A    between atoms: _346  and  _349
REMARK  147  A    between atoms: _349  and  _350
REMARK  148  A    between atoms: _353  and  _355
REMARK  149  A    between atoms: _355  and  _356
REMARK  150  A    between atoms: _358  and  _360
REMARK  151  A    between atoms: _360  and  _361
REMARK  152  A    between atoms: _360  and  _363
REMARK  153  A    between atoms: _363  and  _364
REMARK  154  A    between atoms: _367  and  _369
REMARK  155  A    between atoms: _369  and  _370
REMARK  156  A    between atoms: _369  and  _372
REMARK  157  A    between atoms: _375  and  _376
REMARK  158  A    between atoms: _381  and  _383
REMARK  159  A    between atoms: _383  and  _384
REMARK  160  A    between atoms: _383  and  _386
REMARK  161  A    between atoms: _386  and  _387
REMARK  162  A    between atoms: _390  and  _392
REMARK  163  A    between atoms: _392  and  _393
REMARK  164  A    between atoms: _392  and  _395
REMARK  165  A    between atoms: _398  and  _400
REMARK  166  A    between atoms: _400  and  _401
REMARK  167  A    between atoms: _400  and  _403
REMARK  168  A    between atoms: _406  and  _408
REMARK  169  A    between atoms: _408  and  _409
REMARK  170  A    between atoms: _408  and  _411
REMARK  171  A    between atoms: _411  and  _412
REMARK  172  A    between atoms: _416  and  _417
REMARK  173  A    between atoms: _422  and  _424
REMARK  174  A    between atoms: _424  and  _425
REMARK  175  A    between atoms: _424  and  _427
REMARK  176  A    between atoms: _427  and  _428
REMARK  177  A    between atoms: _433  and  _434
REMARK  178  A    between atoms: _436  and  _438
REMARK  179  A    between atoms: _438  and  _439
REMARK  180  A    between atoms: _438  and  _441
REMARK  181  A    between atoms: _441  and  _442
REMARK  182  A    between atoms: _442  and  _443
REMARK  183  A    between atoms: _445  and  _447
REMARK  184  A    between atoms: _447  and  _448
REMARK  185  A    between atoms: _447  and  _450
REMARK  186  A    between atoms: _450  and  _451
REMARK  187  A    between atoms: _451  and  _452
REMARK  188  A    between atoms: _452  and  _453
REMARK  189  A    between atoms: _453  and  _454
REMARK  190  A    between atoms: _458  and  _460
REMARK  191  A    between atoms: _460  and  _461
REMARK  192  A    between atoms: _460  and  _463
REMARK  193  A    between atoms: _463  and  _464
REMARK  194  A    between atoms: _469  and  _471
REMARK  195  A    between atoms: _471  and  _472
REMARK  196  A    between atoms: _474  and  _476
REMARK  197  A    between atoms: _476  and  _477
REMARK  198  A    between atoms: _476  and  _479
REMARK  199  A    between atoms: _479  and  _480
REMARK  200  A    between atoms: _483  and  _485
REMARK  201  A    between atoms: _485  and  _486
REMARK  202  A    between atoms: _485  and  _488
REMARK  203  A    between atoms: _488  and  _489
REMARK  204  A    between atoms: _494  and  _496
REMARK  205  A    between atoms: _496  and  _497
REMARK  206  A    between atoms: _496  and  _499
REMARK  207  A    between atoms: _499  and  _500
REMARK  208  A    between atoms: _503  and  _505
REMARK  209  A    between atoms: _505  and  _506
REMARK  210  A    between atoms: _505  and  _508
REMARK  211  A    between atoms: _508  and  _509
REMARK  212  A    between atoms: _515  and  _517
REMARK  213  A    between atoms: _517  and  _518
REMARK  214  A    between atoms: _517  and  _520
REMARK  215  A    between atoms: _523  and  _525
REMARK  216  A    between atoms: _525  and  _526
REMARK  217  A    between atoms: _525  and  _528
REMARK  218  A    between atoms: _528  and  _529
REMARK  219  A    between atoms: _534  and  _536
REMARK  220  A    between atoms: _536  and  _537
REMARK  221  A    between atoms: _536  and  _539
REMARK  222  A    between atoms: _539  and  _540
REMARK  223  A    between atoms: _540  and  _541
REMARK  224  A    between atoms: _541  and  _542
REMARK  225  A    between atoms: _551  and  _553
REMARK  226  A    between atoms: _553  and  _554
REMARK  227  A    between atoms: _553  and  _556
REMARK  228  A    between atoms: _556  and  _557
REMARK  229  A    between atoms: _562  and  _564
REMARK  230  A    between atoms: _564  and  _565
REMARK  231  A    between atoms: _564  and  _567
REMARK  232  A    between atoms: _569  and  _571
REMARK  233  A    between atoms: _571  and  _572
REMARK  234  A    between atoms: _571  and  _574
REMARK  235  A    between atoms: _574  and  _575
REMARK  236  A    between atoms: _575  and  _576
REMARK  237  A    between atoms: _578  and  _580
REMARK  238  A    between atoms: _580  and  _581
REMARK  239  A    between atoms: _580  and  _583
REMARK  240  A    between atoms: _583  and  _584
REMARK  241  A    between atoms: _587  and  _589
REMARK  242  A    between atoms: _589  and  _590
REMARK  243  A    between atoms: _589  and  _592
REMARK  244  A    between atoms: _592  and  _593
REMARK  245  A    between atoms: _593  and  _594
REMARK  246  A    between atoms: _594  and  _595
REMARK  247  A    between atoms: _595  and  _596
REMARK  248  A    between atoms: _600  and  _602
REMARK  249  A    between atoms: _602  and  _603
REMARK  250  A    between atoms: _602  and  _605
REMARK  251  A    between atoms: _608  and  _610
REMARK  252  A    between atoms: _610  and  _611
REMARK  253  A    between atoms: _614  and  _616
REMARK  254  A    between atoms: _616  and  _617
REMARK  255  A    between atoms: _616  and  _619
REMARK  256  A    between atoms: _619  and  _620
REMARK  257  A    between atoms: _623  and  _625
REMARK  258  A    between atoms: _625  and  _626
REMARK  259  A    between atoms: _625  and  _628
REMARK  260  A    between atoms: _628  and  _629
REMARK  261  A    between atoms: _635  and  _637
REMARK  262  A    between atoms: _637  and  _638
REMARK                            x       y       z     vdW  Elec       q    Type
REMARK                         _______ _______ _______ _____ _____    ______ ____
ROOT
ATOM      1  O   HOH     1      21.938  -7.509  30.815  0.00  0.00    +0.000 OA
ENDROOT
TORSDOF 0
REMARK  Name = ../refined-set-2016/3u6i/3u6i_pocket.pdb
REMARK  262 active torsions:
REMARK  status: ('A' for Active; 'I' for Inactive)
REMARK    1  A    between atoms: _1  and  _3
REMARK    2  A    between atoms: _3  and  _4
REMARK    3  A    between atoms: _3  and  _6
REMARK    4  A    between atoms: _9  and  _11
REMARK    5  A    between atoms: _11  and  _12
REMARK    6  A    between atoms: _11  and  _14
REMARK    7  A    between atoms: _17  and  _19
REMARK    8  A    between atoms: _19  and  _20
REMARK    9  A    between atoms: _19  and  _22
REMARK   10  A    between atoms: _22  and  _23
REMARK   11  A    between atoms: _26  and  _28
REMARK   12  A    between atoms: _28  and  _29
REMARK   13  A    between atoms: _31  and  _33
REMARK   14  A    between atoms: _33  and  _34
REMARK   15  A    between atoms: _33  and  _36
REMARK   16  A    between atoms: _36  and  _37
REMARK   17  A    between atoms: _37  and  _38
REMARK   18  A    between atoms: _38  and  _39
REMARK   19  A    between atoms: _48  and  _50
REMARK   20  A    between atoms: _50  and  _51
REMARK   21  A    between atoms: _53  and  _55
REMARK   22  A    between atoms: _55  and  _56
REMARK   23  A    between atoms: _55  and  _58
REMARK   24  A    between atoms: _58  and  _59
REMARK   25  A    between atoms: _64  and  _66
REMARK   26  A    between atoms: _66  and  _67
REMARK   27  A    between atoms: _66  and  _69
REMARK   28  A    between atoms: _69  and  _70
REMARK   29  A    between atoms: _76  and  _78
REMARK   30  A    between atoms: _78  and  _79
REMARK   31  A    between atoms: _81  and  _83
REMARK   32  A    between atoms: _83  and  _84
REMARK   33  A    between atoms: _83  and  _86
REMARK   34  A    between atoms: _88  and  _90
REMARK   35  A    between atoms: _90  and  _91
REMARK   36  A    between atoms: _90  and  _93
REMARK   37  A    between atoms: _96  and  _98
REMARK   38  A    between atoms: _98  and  _99
REMARK   39  A    between atoms: _98  and  _101
REMARK   40  A    between atoms: _101  and  _102
REMARK   41  A    between atoms: _107  and  _108
REMARK   42  A    between atoms: _110  and  _112
REMARK   43  A    between atoms: _112  and  _113
REMARK   44  A    between atoms: _112  and  _115
REMARK   45  A    between atoms: _115  and  _116
REMARK   46  A    between atoms: _121  and  _123
REMARK   47  A    between atoms: _123  and  _124
REMARK   48  A    between atoms: _123  and  _126
REMARK   49  A    between atoms: _126  and  _127
REMARK   50  A    between atoms: _132  and  _134
REMARK   51  A    between atoms: _134  and  _135
REMARK   52  A    between atoms: _134  and  _137
REMARK   53  A    between atoms: _139  and  _141
REMARK   54  A    between atoms: _141  and  _142
REMARK   55  A    between atoms: _145  and  _147
REMARK   56  A    between atoms: _147  and  _148
REMARK   57  A    between atoms: _147  and  _150
REMARK   58  A    between atoms: _153  and  _155
REMARK   59  A    between atoms: _155  and  _156
REMARK   60  A    between atoms: _155  and  _158
REMARK   61  A    between atoms: _158  and  _159
REMARK   62  A    between atoms: _159  and  _160
REMARK   63  A    between atoms: _160  and  _161
REMARK   64  A    between atoms: _161  and  _162
REMARK   65  A    between atoms: _166  and  _168
REMARK   66  A    between atoms: _168  and  _169
REMARK   67  A    between atoms: _168  and  _171
REMARK   68  A    between atoms: _171  and  _172
REMARK   69  A    between atoms: _174  and  _176
REMARK   70  A    between atoms: _176  and  _177
REMARK   71  A    between atoms: _176  and  _179
REMARK   72  A    between atoms: _179  and  _180
REMARK   73  A    between atoms: _183  and  _185
REMARK   74  A    between atoms: _185  and  _186
REMARK   75  A    between atoms: _185  and  _188
REMARK   76  A    between atoms: _188  and  _189
REMARK   77  A    between atoms: _192  and  _194
REMARK   78  A    between atoms: _194  and  _195
REMARK   79  A    between atoms: _194  and  _197
REMARK   80  A    between atoms: _197  and  _198
REMARK   81  A    between atoms: _198  and  _199
REMARK   82  A    between atoms: _202  and  _204
REMARK   83  A    between atoms: _204  and  _205
REMARK   84  A    between atoms: _204  and  _207
REMARK   85  A    between atoms: _210  and  _212
REMARK   86  A    between atoms: _212  and  _213
REMARK   87  A    between atoms: _212  and  _215
REMARK   88  A    between atoms: _215  and  _216
REMARK   89  A    between atoms: _216  and  _217
REMARK   90  A    between atoms: _222  and  _224
REMARK   91  A    between atoms: _224  and  _225
REMARK   92  A    between atoms: _224  and  _227
REMARK   93  A    between atoms: _227  and  _228
REMARK   94  A    between atoms: _234  and  _236
REMARK   95  A    between atoms: _236  and  _237
REMARK   96  A    between atoms: _236  and  _239
REMARK   97  A    between atoms: _239  and  _240
REMARK   98  A    between atoms: _243  and  _245
REMARK   99  A    between atoms: _245  and  _246
REMARK  100  A    between atoms: _245  and  _248
REMARK  101  A    between atoms: _248  and  _249
REMARK  102  A    between atoms: _252  and  _254
REMARK  103  A    between atoms: _254  and  _255
REMARK  104  A    between atoms: _254  and  _257
REMARK  105  A    between atoms: _257  and  _258
REMARK  106  A    between atoms: _258  and  _259
REMARK  107  A    between atoms: _262  and  _264
REMARK  108  A    between atoms: _264  and  _265
REMARK  109  A    between atoms: _267  and  _269
REMARK  110  A    between atoms: _269  and  _270
REMARK  111  A    between atoms: _269  and  _272
REMARK  112  A    between atoms: _272  and  _273
REMARK  113  A    between atoms: _276  and  _278
REMARK  114  A    between atoms: _278  and  _279
REMARK  115  A    between atoms: _278  and  _281
REMARK  116  A    between atoms: _281  and  _282
REMARK  117  A    between atoms: _285  and  _287
REMARK  118  A    between atoms: _287  and  _288
REMARK  119  A    between atoms: _287  and  _290
REMARK  120  A    between atoms: _290  and  _291
REMARK  121  A    between atoms: _291  and  _292
REMARK  122  A    between atoms: _294  and  _296
REMARK  123  A    between atoms: _296  and  _297
REMARK  124  A    between atoms: _296  and  _299
REMARK  125  A    between atoms: _299  and  _300
REMARK  126  A    between atoms: _300  and  _301
REMARK  127  A    between atoms: _301  and  _302
REMARK  128  A    between atoms: _302  and  _303
REMARK  129  A    between atoms: _307  and  _309
REMARK  130  A    between atoms: _309  and  _310
REMARK  131  A    between atoms: _309  and  _312
REMARK  132  A    between atoms: _312  and  _313
REMARK  133  A    between atoms: _319  and  _321
REMARK  134  A    between atoms: _321  and  _322
REMARK  135  A    between atoms: _321  and  _324
REMARK  136  A    between atoms: _327  and  _329
REMARK  137  A    between atoms: _329  and  _330
REMARK  138  A    between atoms: _329  and  _332
REMARK  139  A    between atoms: _332  and  _333
REMARK  140  A    between atoms: _336  and  _338
REMARK  141  A    between atoms: _338  and  _339
REMARK  142  A    between atoms: _338  and  _341
REMARK  143  A    between atoms: _341  and  _342
REMARK  144  A    between atoms: _344  and  _346
REMARK  145  A    between atoms: _346  and  _347
REMARK  146  A    between atoms: _346  and  _349
REMARK  147  A    between atoms: _349  and  _350
REMARK  148  A    between atoms: _353  and  _355
REMARK  149  A    between atoms: _355  and  _356
REMARK  150  A    between atoms: _358  and  _360
REMARK  151  A    between atoms: _360  and  _361
REMARK  152  A    between atoms: _360  and  _363
REMARK  153  A    between atoms: _363  and  _364
REMARK  154  A    between atoms: _367  and  _369
REMARK  155  A    between atoms: _369  and  _370
REMARK  156  A    between atoms: _369  and  _372
REMARK  157  A    between atoms: _375  and  _376
REMARK  158  A    between atoms: _381  and  _383
REMARK  159  A    between atoms: _383  and  _384
REMARK  160  A    between atoms: _383  and  _386
REMARK  161  A    between atoms: _386  and  _387
REMARK  162  A    between atoms: _390  and  _392
REMARK  163  A    between atoms: _392  and  _393
REMARK  164  A    between atoms: _392  and  _395
REMARK  165  A    between atoms: _398  and  _400
REMARK  166  A    between atoms: _400  and  _401
REMARK  167  A    between atoms: _400  and  _403
REMARK  168  A    between atoms: _406  and  _408
REMARK  169  A    between atoms: _408  and  _409
REMARK  170  A    between atoms: _408  and  _411
REMARK  171  A    between atoms: _411  and  _412
REMARK  172  A    between atoms: _416  and  _417
REMARK  173  A    between atoms: _422  and  _424
REMARK  174  A    between atoms: _424  and  _425
REMARK  175  A    between atoms: _424  and  _427
REMARK  176  A    between atoms: _427  and  _428
REMARK  177  A    between atoms: _433  and  _434
REMARK  178  A    between atoms: _436  and  _438
REMARK  179  A    between atoms: _438  and  _439
REMARK  180  A    between atoms: _438  and  _441
REMARK  181  A    between atoms: _441  and  _442
REMARK  182  A    between atoms: _442  and  _443
REMARK  183  A    between atoms: _445  and  _447
REMARK  184  A    between atoms: _447  and  _448
REMARK  185  A    between atoms: _447  and  _450
REMARK  186  A    between atoms: _450  and  _451
REMARK  187  A    between atoms: _451  and  _452
REMARK  188  A    between atoms: _452  and  _453
REMARK  189  A    between atoms: _453  and  _454
REMARK  190  A    between atoms: _458  and  _460
REMARK  191  A    between atoms: _460  and  _461
REMARK  192  A    between atoms: _460  and  _463
REMARK  193  A    between atoms: _463  and  _464
REMARK  194  A    between atoms: _469  and  _471
REMARK  195  A    between atoms: _471  and  _472
REMARK  196  A    between atoms: _474  and  _476
REMARK  197  A    between atoms: _476  and  _477
REMARK  198  A    between atoms: _476  and  _479
REMARK  199  A    between atoms: _479  and  _480
REMARK  200  A    between atoms: _483  and  _485
REMARK  201  A    between atoms: _485  and  _486
REMARK  202  A    between atoms: _485  and  _488
REMARK  203  A    between atoms: _488  and  _489
REMARK  204  A    between atoms: _494  and  _496
REMARK  205  A    between atoms: _496  and  _497
REMARK  206  A    between atoms: _496  and  _499
REMARK  207  A    between atoms: _499  and  _500
REMARK  208  A    between atoms: _503  and  _505
REMARK  209  A    between atoms: _505  and  _506
REMARK  210  A    between atoms: _505  and  _508
REMARK  211  A    between atoms: _508  and  _509
REMARK  212  A    between atoms: _515  and  _517
REMARK  213  A    between atoms: _517  and  _518
REMARK  214  A    between atoms: _517  and  _520
REMARK  215  A    between atoms: _523  and  _525
REMARK  216  A    between atoms: _525  and  _526
REMARK  217  A    between atoms: _525  and  _528
REMARK  218  A    between atoms: _528  and  _529
REMARK  219  A    between atoms: _534  and  _536
REMARK  220  A    between atoms: _536  and  _537
REMARK  221  A    between atoms: _536  and  _539
REMARK  222  A    between atoms: _539  and  _540
REMARK  223  A    between atoms: _540  and  _541
REMARK  224  A    between atoms: _541  and  _542
REMARK  225  A    between atoms: _551  and  _553
REMARK  226  A    between atoms: _553  and  _554
REMARK  227  A    between atoms: _553  and  _556
REMARK  228  A    between atoms: _556  and  _557
REMARK  229  A    between atoms: _562  and  _564
REMARK  230  A    between atoms: _564  and  _565
REMARK  231  A    between atoms: _564  and  _567
REMARK  232  A    between atoms: _569  and  _571
REMARK  233  A    between atoms: _571  and  _572
REMARK  234  A    between atoms: _571  and  _574
REMARK  235  A    between atoms: _574  and  _575
REMARK  236  A    between atoms: _575  and  _576
REMARK  237  A    between atoms: _578  and  _580
REMARK  238  A    between atoms: _580  and  _581
REMARK  239  A    between atoms: _580  and  _583
REMARK  240  A    between atoms: _583  and  _584
REMARK  241  A    between atoms: _587  and  _589
REMARK  242  A    between atoms: _589  and  _590
REMARK  243  A    between atoms: _589  and  _592
REMARK  244  A    between atoms: _592  and  _593
REMARK  245  A    between atoms: _593  and  _594
REMARK  246  A    between atoms: _594  and  _595
REMARK  247  A    between atoms: _595  and  _596
REMARK  248  A    between atoms: _600  and  _602
REMARK  249  A    between atoms: _602  and  _603
REMARK  250  A    between atoms: _602  and  _605
REMARK  251  A    between atoms: _608  and  _610
REMARK  252  A    between atoms: _610  and  _611
REMARK  253  A    between atoms: _614  and  _616
REMARK  254  A    between atoms: _616  and  _617
REMARK  255  A    between atoms: _616  and  _619
REMARK  256  A    between atoms: _619  and  _620
REMARK  257  A    between atoms: _623  and  _625
REMARK  258  A    between atoms: _625  and  _626
REMARK  259  A    between atoms: _625  and  _628
REMARK  260  A    between atoms: _628  and  _629
REMARK  261  A    between atoms: _635  and  _637
REMARK  262  A    between atoms: _637  and  _638
REMARK                            x       y       z     vdW  Elec       q    Type
REMARK                         _______ _______ _______ _____ _____    ______ ____
ROOT
ATOM      1  O   HOH     1      16.023 -11.188  27.928  0.00  0.00    +0.000 OA
ENDROOT
TORSDOF 0
REMARK  Name = ../refined-set-2016/3u6i/3u6i_pocket.pdb
REMARK  262 active torsions:
REMARK  status: ('A' for Active; 'I' for Inactive)
REMARK    1  A    between atoms: _1  and  _3
REMARK    2  A    between atoms: _3  and  _4
REMARK    3  A    between atoms: _3  and  _6
REMARK    4  A    between atoms: _9  and  _11
REMARK    5  A    between atoms: _11  and  _12
REMARK    6  A    between atoms: _11  and  _14
REMARK    7  A    between atoms: _17  and  _19
REMARK    8  A    between atoms: _19  and  _20
REMARK    9  A    between atoms: _19  and  _22
REMARK   10  A    between atoms: _22  and  _23
REMARK   11  A    between atoms: _26  and  _28
REMARK   12  A    between atoms: _28  and  _29
REMARK   13  A    between atoms: _31  and  _33
REMARK   14  A    between atoms: _33  and  _34
REMARK   15  A    between atoms: _33  and  _36
REMARK   16  A    between atoms: _36  and  _37
REMARK   17  A    between atoms: _37  and  _38
REMARK   18  A    between atoms: _38  and  _39
REMARK   19  A    between atoms: _48  and  _50
REMARK   20  A    between atoms: _50  and  _51
REMARK   21  A    between atoms: _53  and  _55
REMARK   22  A    between atoms: _55  and  _56
REMARK   23  A    between atoms: _55  and  _58
REMARK   24  A    between atoms: _58  and  _59
REMARK   25  A    between atoms: _64  and  _66
REMARK   26  A    between atoms: _66  and  _67
REMARK   27  A    between atoms: _66  and  _69
REMARK   28  A    between atoms: _69  and  _70
REMARK   29  A    between atoms: _76  and  _78
REMARK   30  A    between atoms: _78  and  _79
REMARK   31  A    between atoms: _81  and  _83
REMARK   32  A    between atoms: _83  and  _84
REMARK   33  A    between atoms: _83  and  _86
REMARK   34  A    between atoms: _88  and  _90
REMARK   35  A    between atoms: _90  and  _91
REMARK   36  A    between atoms: _90  and  _93
REMARK   37  A    between atoms: _96  and  _98
REMARK   38  A    between atoms: _98  and  _99
REMARK   39  A    between atoms: _98  and  _101
REMARK   40  A    between atoms: _101  and  _102
REMARK   41  A    between atoms: _107  and  _108
REMARK   42  A    between atoms: _110  and  _112
REMARK   43  A    between atoms: _112  and  _113
REMARK   44  A    between atoms: _112  and  _115
REMARK   45  A    between atoms: _115  and  _116
REMARK   46  A    between atoms: _121  and  _123
REMARK   47  A    between atoms: _123  and  _124
REMARK   48  A    between atoms: _123  and  _126
REMARK   49  A    between atoms: _126  and  _127
REMARK   50  A    between atoms: _132  and  _134
REMARK   51  A    between atoms: _134  and  _135
REMARK   52  A    between atoms: _134  and  _137
REMARK   53  A    between atoms: _139  and  _141
REMARK   54  A    between atoms: _141  and  _142
REMARK   55  A    between atoms: _145  and  _147
REMARK   56  A    between atoms: _147  and  _148
REMARK   57  A    between atoms: _147  and  _150
REMARK   58  A    between atoms: _153  and  _155
REMARK   59  A    between atoms: _155  and  _156
REMARK   60  A    between atoms: _155  and  _158
REMARK   61  A    between atoms: _158  and  _159
REMARK   62  A    between atoms: _159  and  _160
REMARK   63  A    between atoms: _160  and  _161
REMARK   64  A    between atoms: _161  and  _162
REMARK   65  A    between atoms: _166  and  _168
REMARK   66  A    between atoms: _168  and  _169
REMARK   67  A    between atoms: _168  and  _171
REMARK   68  A    between atoms: _171  and  _172
REMARK   69  A    between atoms: _174  and  _176
REMARK   70  A    between atoms: _176  and  _177
REMARK   71  A    between atoms: _176  and  _179
REMARK   72  A    between atoms: _179  and  _180
REMARK   73  A    between atoms: _183  and  _185
REMARK   74  A    between atoms: _185  and  _186
REMARK   75  A    between atoms: _185  and  _188
REMARK   76  A    between atoms: _188  and  _189
REMARK   77  A    between atoms: _192  and  _194
REMARK   78  A    between atoms: _194  and  _195
REMARK   79  A    between atoms: _194  and  _197
REMARK   80  A    between atoms: _197  and  _198
REMARK   81  A    between atoms: _198  and  _199
REMARK   82  A    between atoms: _202  and  _204
REMARK   83  A    between atoms: _204  and  _205
REMARK   84  A    between atoms: _204  and  _207
REMARK   85  A    between atoms: _210  and  _212
REMARK   86  A    between atoms: _212  and  _213
REMARK   87  A    between atoms: _212  and  _215
REMARK   88  A    between atoms: _215  and  _216
REMARK   89  A    between atoms: _216  and  _217
REMARK   90  A    between atoms: _222  and  _224
REMARK   91  A    between atoms: _224  and  _225
REMARK   92  A    between atoms: _224  and  _227
REMARK   93  A    between atoms: _227  and  _228
REMARK   94  A    between atoms: _234  and  _236
REMARK   95  A    between atoms: _236  and  _237
REMARK   96  A    between atoms: _236  and  _239
REMARK   97  A    between atoms: _239  and  _240
REMARK   98  A    between atoms: _243  and  _245
REMARK   99  A    between atoms: _245  and  _246
REMARK  100  A    between atoms: _245  and  _248
REMARK  101  A    between atoms: _248  and  _249
REMARK  102  A    between atoms: _252  and  _254
REMARK  103  A    between atoms: _254  and  _255
REMARK  104  A    between atoms: _254  and  _257
REMARK  105  A    between atoms: _257  and  _258
REMARK  106  A    between atoms: _258  and  _259
REMARK  107  A    between atoms: _262  and  _264
REMARK  108  A    between atoms: _264  and  _265
REMARK  109  A    between atoms: _267  and  _269
REMARK  110  A    between atoms: _269  and  _270
REMARK  111  A    between atoms: _269  and  _272
REMARK  112  A    between atoms: _272  and  _273
REMARK  113  A    between atoms: _276  and  _278
REMARK  114  A    between atoms: _278  and  _279
REMARK  115  A    between atoms: _278  and  _281
REMARK  116  A    between atoms: _281  and  _282
REMARK  117  A    between atoms: _285  and  _287
REMARK  118  A    between atoms: _287  and  _288
REMARK  119  A    between atoms: _287  and  _290
REMARK  120  A    between atoms: _290  and  _291
REMARK  121  A    between atoms: _291  and  _292
REMARK  122  A    between atoms: _294  and  _296
REMARK  123  A    between atoms: _296  and  _297
REMARK  124  A    between atoms: _296  and  _299
REMARK  125  A    between atoms: _299  and  _300
REMARK  126  A    between atoms: _300  and  _301
REMARK  127  A    between atoms: _301  and  _302
REMARK  128  A    between atoms: _302  and  _303
REMARK  129  A    between atoms: _307  and  _309
REMARK  130  A    between atoms: _309  and  _310
REMARK  131  A    between atoms: _309  and  _312
REMARK  132  A    between atoms: _312  and  _313
REMARK  133  A    between atoms: _319  and  _321
REMARK  134  A    between atoms: _321  and  _322
REMARK  135  A    between atoms: _321  and  _324
REMARK  136  A    between atoms: _327  and  _329
REMARK  137  A    between atoms: _329  and  _330
REMARK  138  A    between atoms: _329  and  _332
REMARK  139  A    between atoms: _332  and  _333
REMARK  140  A    between atoms: _336  and  _338
REMARK  141  A    between atoms: _338  and  _339
REMARK  142  A    between atoms: _338  and  _341
REMARK  143  A    between atoms: _341  and  _342
REMARK  144  A    between atoms: _344  and  _346
REMARK  145  A    between atoms: _346  and  _347
REMARK  146  A    between atoms: _346  and  _349
REMARK  147  A    between atoms: _349  and  _350
REMARK  148  A    between atoms: _353  and  _355
REMARK  149  A    between atoms: _355  and  _356
REMARK  150  A    between atoms: _358  and  _360
REMARK  151  A    between atoms: _360  and  _361
REMARK  152  A    between atoms: _360  and  _363
REMARK  153  A    between atoms: _363  and  _364
REMARK  154  A    between atoms: _367  and  _369
REMARK  155  A    between atoms: _369  and  _370
REMARK  156  A    between atoms: _369  and  _372
REMARK  157  A    between atoms: _375  and  _376
REMARK  158  A    between atoms: _381  and  _383
REMARK  159  A    between atoms: _383  and  _384
REMARK  160  A    between atoms: _383  and  _386
REMARK  161  A    between atoms: _386  and  _387
REMARK  162  A    between atoms: _390  and  _392
REMARK  163  A    between atoms: _392  and  _393
REMARK  164  A    between atoms: _392  and  _395
REMARK  165  A    between atoms: _398  and  _400
REMARK  166  A    between atoms: _400  and  _401
REMARK  167  A    between atoms: _400  and  _403
REMARK  168  A    between atoms: _406  and  _408
REMARK  169  A    between atoms: _408  and  _409
REMARK  170  A    between atoms: _408  and  _411
REMARK  171  A    between atoms: _411  and  _412
REMARK  172  A    between atoms: _416  and  _417
REMARK  173  A    between atoms: _422  and  _424
REMARK  174  A    between atoms: _424  and  _425
REMARK  175  A    between atoms: _424  and  _427
REMARK  176  A    between atoms: _427  and  _428
REMARK  177  A    between atoms: _433  and  _434
REMARK  178  A    between atoms: _436  and  _438
REMARK  179  A    between atoms: _438  and  _439
REMARK  180  A    between atoms: _438  and  _441
REMARK  181  A    between atoms: _441  and  _442
REMARK  182  A    between atoms: _442  and  _443
REMARK  183  A    between atoms: _445  and  _447
REMARK  184  A    between atoms: _447  and  _448
REMARK  185  A    between atoms: _447  and  _450
REMARK  186  A    between atoms: _450  and  _451
REMARK  187  A    between atoms: _451  and  _452
REMARK  188  A    between atoms: _452  and  _453
REMARK  189  A    between atoms: _453  and  _454
REMARK  190  A    between atoms: _458  and  _460
REMARK  191  A    between atoms: _460  and  _461
REMARK  192  A    between atoms: _460  and  _463
REMARK  193  A    between atoms: _463  and  _464
REMARK  194  A    between atoms: _469  and  _471
REMARK  195  A    between atoms: _471  and  _472
REMARK  196  A    between atoms: _474  and  _476
REMARK  197  A    between atoms: _476  and  _477
REMARK  198  A    between atoms: _476  and  _479
REMARK  199  A    between atoms: _479  and  _480
REMARK  200  A    between atoms: _483  and  _485
REMARK  201  A    between atoms: _485  and  _486
REMARK  202  A    between atoms: _485  and  _488
REMARK  203  A    between atoms: _488  and  _489
REMARK  204  A    between atoms: _494  and  _496
REMARK  205  A    between atoms: _496  and  _497
REMARK  206  A    between atoms: _496  and  _499
REMARK  207  A    between atoms: _499  and  _500
REMARK  208  A    between atoms: _503  and  _505
REMARK  209  A    between atoms: _505  and  _506
REMARK  210  A    between atoms: _505  and  _508
REMARK  211  A    between atoms: _508  and  _509
REMARK  212  A    between atoms: _515  and  _517
REMARK  213  A    between atoms: _517  and  _518
REMARK  214  A    between atoms: _517  and  _520
REMARK  215  A    between atoms: _523  and  _525
REMARK  216  A    between atoms: _525  and  _526
REMARK  217  A    between atoms: _525  and  _528
REMARK  218  A    between atoms: _528  and  _529
REMARK  219  A    between atoms: _534  and  _536
REMARK  220  A    between atoms: _536  and  _537
REMARK  221  A    between atoms: _536  and  _539
REMARK  222  A    between atoms: _539  and  _540
REMARK  223  A    between atoms: _540  and  _541
REMARK  224  A    between atoms: _541  and  _542
REMARK  225  A    between atoms: _551  and  _553
REMARK  226  A    between atoms: _553  and  _554
REMARK  227  A    between atoms: _553  and  _556
REMARK  228  A    between atoms: _556  and  _557
REMARK  229  A    between atoms: _562  and  _564
REMARK  230  A    between atoms: _564  and  _565
REMARK  231  A    between atoms: _564  and  _567
REMARK  232  A    between atoms: _569  and  _571
REMARK  233  A    between atoms: _571  and  _572
REMARK  234  A    between atoms: _571  and  _574
REMARK  235  A    between atoms: _574  and  _575
REMARK  236  A    between atoms: _575  and  _576
REMARK  237  A    between atoms: _578  and  _580
REMARK  238  A    between atoms: _580  and  _581
REMARK  239  A    between atoms: _580  and  _583
REMARK  240  A    between atoms: _583  and  _584
REMARK  241  A    between atoms: _587  and  _589
REMARK  242  A    between atoms: _589  and  _590
REMARK  243  A    between atoms: _589  and  _592
REMARK  244  A    between atoms: _592  and  _593
REMARK  245  A    between atoms: _593  and  _594
REMARK  246  A    between atoms: _594  and  _595
REMARK  247  A    between atoms: _595  and  _596
REMARK  248  A    between atoms: _600  and  _602
REMARK  249  A    between atoms: _602  and  _603
REMARK  250  A    between atoms: _602  and  _605
REMARK  251  A    between atoms: _608  and  _610
REMARK  252  A    between atoms: _610  and  _611
REMARK  253  A    between atoms: _614  and  _616
REMARK  254  A    between atoms: _616  and  _617
REMARK  255  A    between atoms: _616  and  _619
REMARK  256  A    between atoms: _619  and  _620
REMARK  257  A    between atoms: _623  and  _625
REMARK  258  A    between atoms: _625  and  _626
REMARK  259  A    between atoms: _625  and  _628
REMARK  260  A    between atoms: _628  and  _629
REMARK  261  A    between atoms: _635  and  _637
REMARK  262  A    between atoms: _637  and  _638
REMARK                            x       y       z     vdW  Elec       q    Type
REMARK                         _______ _______ _______ _____ _____    ______ ____
ROOT
ATOM      1  O   HOH     1      16.178  -6.844  22.964  0.00  0.00    +0.000 OA
ENDROOT
TORSDOF 0
REMARK  Name = ../refined-set-2016/3u6i/3u6i_pocket.pdb
REMARK  262 active torsions:
REMARK  status: ('A' for Active; 'I' for Inactive)
REMARK    1  A    between atoms: _1  and  _3
REMARK    2  A    between atoms: _3  and  _4
REMARK    3  A    between atoms: _3  and  _6
REMARK    4  A    between atoms: _9  and  _11
REMARK    5  A    between atoms: _11  and  _12
REMARK    6  A    between atoms: _11  and  _14
REMARK    7  A    between atoms: _17  and  _19
REMARK    8  A    between atoms: _19  and  _20
REMARK    9  A    between atoms: _19  and  _22
REMARK   10  A    between atoms: _22  and  _23
REMARK   11  A    between atoms: _26  and  _28
REMARK   12  A    between atoms: _28  and  _29
REMARK   13  A    between atoms: _31  and  _33
REMARK   14  A    between atoms: _33  and  _34
REMARK   15  A    between atoms: _33  and  _36
REMARK   16  A    between atoms: _36  and  _37
REMARK   17  A    between atoms: _37  and  _38
REMARK   18  A    between atoms: _38  and  _39
REMARK   19  A    between atoms: _48  and  _50
REMARK   20  A    between atoms: _50  and  _51
REMARK   21  A    between atoms: _53  and  _55
REMARK   22  A    between atoms: _55  and  _56
REMARK   23  A    between atoms: _55  and  _58
REMARK   24  A    between atoms: _58  and  _59
REMARK   25  A    between atoms: _64  and  _66
REMARK   26  A    between atoms: _66  and  _67
REMARK   27  A    between atoms: _66  and  _69
REMARK   28  A    between atoms: _69  and  _70
REMARK   29  A    between atoms: _76  and  _78
REMARK   30  A    between atoms: _78  and  _79
REMARK   31  A    between atoms: _81  and  _83
REMARK   32  A    between atoms: _83  and  _84
REMARK   33  A    between atoms: _83  and  _86
REMARK   34  A    between atoms: _88  and  _90
REMARK   35  A    between atoms: _90  and  _91
REMARK   36  A    between atoms: _90  and  _93
REMARK   37  A    between atoms: _96  and  _98
REMARK   38  A    between atoms: _98  and  _99
REMARK   39  A    between atoms: _98  and  _101
REMARK   40  A    between atoms: _101  and  _102
REMARK   41  A    between atoms: _107  and  _108
REMARK   42  A    between atoms: _110  and  _112
REMARK   43  A    between atoms: _112  and  _113
REMARK   44  A    between atoms: _112  and  _115
REMARK   45  A    between atoms: _115  and  _116
REMARK   46  A    between atoms: _121  and  _123
REMARK   47  A    between atoms: _123  and  _124
REMARK   48  A    between atoms: _123  and  _126
REMARK   49  A    between atoms: _126  and  _127
REMARK   50  A    between atoms: _132  and  _134
REMARK   51  A    between atoms: _134  and  _135
REMARK   52  A    between atoms: _134  and  _137
REMARK   53  A    between atoms: _139  and  _141
REMARK   54  A    between atoms: _141  and  _142
REMARK   55  A    between atoms: _145  and  _147
REMARK   56  A    between atoms: _147  and  _148
REMARK   57  A    between atoms: _147  and  _150
REMARK   58  A    between atoms: _153  and  _155
REMARK   59  A    between atoms: _155  and  _156
REMARK   60  A    between atoms: _155  and  _158
REMARK   61  A    between atoms: _158  and  _159
REMARK   62  A    between atoms: _159  and  _160
REMARK   63  A    between atoms: _160  and  _161
REMARK   64  A    between atoms: _161  and  _162
REMARK   65  A    between atoms: _166  and  _168
REMARK   66  A    between atoms: _168  and  _169
REMARK   67  A    between atoms: _168  and  _171
REMARK   68  A    between atoms: _171  and  _172
REMARK   69  A    between atoms: _174  and  _176
REMARK   70  A    between atoms: _176  and  _177
REMARK   71  A    between atoms: _176  and  _179
REMARK   72  A    between atoms: _179  and  _180
REMARK   73  A    between atoms: _183  and  _185
REMARK   74  A    between atoms: _185  and  _186
REMARK   75  A    between atoms: _185  and  _188
REMARK   76  A    between atoms: _188  and  _189
REMARK   77  A    between atoms: _192  and  _194
REMARK   78  A    between atoms: _194  and  _195
REMARK   79  A    between atoms: _194  and  _197
REMARK   80  A    between atoms: _197  and  _198
REMARK   81  A    between atoms: _198  and  _199
REMARK   82  A    between atoms: _202  and  _204
REMARK   83  A    between atoms: _204  and  _205
REMARK   84  A    between atoms: _204  and  _207
REMARK   85  A    between atoms: _210  and  _212
REMARK   86  A    between atoms: _212  and  _213
REMARK   87  A    between atoms: _212  and  _215
REMARK   88  A    between atoms: _215  and  _216
REMARK   89  A    between atoms: _216  and  _217
REMARK   90  A    between atoms: _222  and  _224
REMARK   91  A    between atoms: _224  and  _225
REMARK   92  A    between atoms: _224  and  _227
REMARK   93  A    between atoms: _227  and  _228
REMARK   94  A    between atoms: _234  and  _236
REMARK   95  A    between atoms: _236  and  _237
REMARK   96  A    between atoms: _236  and  _239
REMARK   97  A    between atoms: _239  and  _240
REMARK   98  A    between atoms: _243  and  _245
REMARK   99  A    between atoms: _245  and  _246
REMARK  100  A    between atoms: _245  and  _248
REMARK  101  A    between atoms: _248  and  _249
REMARK  102  A    between atoms: _252  and  _254
REMARK  103  A    between atoms: _254  and  _255
REMARK  104  A    between atoms: _254  and  _257
REMARK  105  A    between atoms: _257  and  _258
REMARK  106  A    between atoms: _258  and  _259
REMARK  107  A    between atoms: _262  and  _264
REMARK  108  A    between atoms: _264  and  _265
REMARK  109  A    between atoms: _267  and  _269
REMARK  110  A    between atoms: _269  and  _270
REMARK  111  A    between atoms: _269  and  _272
REMARK  112  A    between atoms: _272  and  _273
REMARK  113  A    between atoms: _276  and  _278
REMARK  114  A    between atoms: _278  and  _279
REMARK  115  A    between atoms: _278  and  _281
REMARK  116  A    between atoms: _281  and  _282
REMARK  117  A    between atoms: _285  and  _287
REMARK  118  A    between atoms: _287  and  _288
REMARK  119  A    between atoms: _287  and  _290
REMARK  120  A    between atoms: _290  and  _291
REMARK  121  A    between atoms: _291  and  _292
REMARK  122  A    between atoms: _294  and  _296
REMARK  123  A    between atoms: _296  and  _297
REMARK  124  A    between atoms: _296  and  _299
REMARK  125  A    between atoms: _299  and  _300
REMARK  126  A    between atoms: _300  and  _301
REMARK  127  A    between atoms: _301  and  _302
REMARK  128  A    between atoms: _302  and  _303
REMARK  129  A    between atoms: _307  and  _309
REMARK  130  A    between atoms: _309  and  _310
REMARK  131  A    between atoms: _309  and  _312
REMARK  132  A    between atoms: _312  and  _313
REMARK  133  A    between atoms: _319  and  _321
REMARK  134  A    between atoms: _321  and  _322
REMARK  135  A    between atoms: _321  and  _324
REMARK  136  A    between atoms: _327  and  _329
REMARK  137  A    between atoms: _329  and  _330
REMARK  138  A    between atoms: _329  and  _332
REMARK  139  A    between atoms: _332  and  _333
REMARK  140  A    between atoms: _336  and  _338
REMARK  141  A    between atoms: _338  and  _339
REMARK  142  A    between atoms: _338  and  _341
REMARK  143  A    between atoms: _341  and  _342
REMARK  144  A    between atoms: _344  and  _346
REMARK  145  A    between atoms: _346  and  _347
REMARK  146  A    between atoms: _346  and  _349
REMARK  147  A    between atoms: _349  and  _350
REMARK  148  A    between atoms: _353  and  _355
REMARK  149  A    between atoms: _355  and  _356
REMARK  150  A    between atoms: _358  and  _360
REMARK  151  A    between atoms: _360  and  _361
REMARK  152  A    between atoms: _360  and  _363
REMARK  153  A    between atoms: _363  and  _364
REMARK  154  A    between atoms: _367  and  _369
REMARK  155  A    between atoms: _369  and  _370
REMARK  156  A    between atoms: _369  and  _372
REMARK  157  A    between atoms: _375  and  _376
REMARK  158  A    between atoms: _381  and  _383
REMARK  159  A    between atoms: _383  and  _384
REMARK  160  A    between atoms: _383  and  _386
REMARK  161  A    between atoms: _386  and  _387
REMARK  162  A    between atoms: _390  and  _392
REMARK  163  A    between atoms: _392  and  _393
REMARK  164  A    between atoms: _392  and  _395
REMARK  165  A    between atoms: _398  and  _400
REMARK  166  A    between atoms: _400  and  _401
REMARK  167  A    between atoms: _400  and  _403
REMARK  168  A    between atoms: _406  and  _408
REMARK  169  A    between atoms: _408  and  _409
REMARK  170  A    between atoms: _408  and  _411
REMARK  171  A    between atoms: _411  and  _412
REMARK  172  A    between atoms: _416  and  _417
REMARK  173  A    between atoms: _422  and  _424
REMARK  174  A    between atoms: _424  and  _425
REMARK  175  A    between atoms: _424  and  _427
REMARK  176  A    between atoms: _427  and  _428
REMARK  177  A    between atoms: _433  and  _434
REMARK  178  A    between atoms: _436  and  _438
REMARK  179  A    between atoms: _438  and  _439
REMARK  180  A    between atoms: _438  and  _441
REMARK  181  A    between atoms: _441  and  _442
REMARK  182  A    between atoms: _442  and  _443
REMARK  183  A    between atoms: _445  and  _447
REMARK  184  A    between atoms: _447  and  _448
REMARK  185  A    between atoms: _447  and  _450
REMARK  186  A    between atoms: _450  and  _451
REMARK  187  A    between atoms: _451  and  _452
REMARK  188  A    between atoms: _452  and  _453
REMARK  189  A    between atoms: _453  and  _454
REMARK  190  A    between atoms: _458  and  _460
REMARK  191  A    between atoms: _460  and  _461
REMARK  192  A    between atoms: _460  and  _463
REMARK  193  A    between atoms: _463  and  _464
REMARK  194  A    between atoms: _469  and  _471
REMARK  195  A    between atoms: _471  and  _472
REMARK  196  A    between atoms: _474  and  _476
REMARK  197  A    between atoms: _476  and  _477
REMARK  198  A    between atoms: _476  and  _479
REMARK  199  A    between atoms: _479  and  _480
REMARK  200  A    between atoms: _483  and  _485
REMARK  201  A    between atoms: _485  and  _486
REMARK  202  A    between atoms: _485  and  _488
REMARK  203  A    between atoms: _488  and  _489
REMARK  204  A    between atoms: _494  and  _496
REMARK  205  A    between atoms: _496  and  _497
REMARK  206  A    between atoms: _496  and  _499
REMARK  207  A    between atoms: _499  and  _500
REMARK  208  A    between atoms: _503  and  _505
REMARK  209  A    between atoms: _505  and  _506
REMARK  210  A    between atoms: _505  and  _508
REMARK  211  A    between atoms: _508  and  _509
REMARK  212  A    between atoms: _515  and  _517
REMARK  213  A    between atoms: _517  and  _518
REMARK  214  A    between atoms: _517  and  _520
REMARK  215  A    between atoms: _523  and  _525
REMARK  216  A    between atoms: _525  and  _526
REMARK  217  A    between atoms: _525  and  _528
REMARK  218  A    between atoms: _528  and  _529
REMARK  219  A    between atoms: _534  and  _536
REMARK  220  A    between atoms: _536  and  _537
REMARK  221  A    between atoms: _536  and  _539
REMARK  222  A    between atoms: _539  and  _540
REMARK  223  A    between atoms: _540  and  _541
REMARK  224  A    between atoms: _541  and  _542
REMARK  225  A    between atoms: _551  and  _553
REMARK  226  A    between atoms: _553  and  _554
REMARK  227  A    between atoms: _553  and  _556
REMARK  228  A    between atoms: _556  and  _557
REMARK  229  A    between atoms: _562  and  _564
REMARK  230  A    between atoms: _564  and  _565
REMARK  231  A    between atoms: _564  and  _567
REMARK  232  A    between atoms: _569  and  _571
REMARK  233  A    between atoms: _571  and  _572
REMARK  234  A    between atoms: _571  and  _574
REMARK  235  A    between atoms: _574  and  _575
REMARK  236  A    between atoms: _575  and  _576
REMARK  237  A    between atoms: _578  and  _580
REMARK  238  A    between atoms: _580  and  _581
REMARK  239  A    between atoms: _580  and  _583
REMARK  240  A    between atoms: _583  and  _584
REMARK  241  A    between atoms: _587  and  _589
REMARK  242  A    between atoms: _589  and  _590
REMARK  243  A    between atoms: _589  and  _592
REMARK  244  A    between atoms: _592  and  _593
REMARK  245  A    between atoms: _593  and  _594
REMARK  246  A    between atoms: _594  and  _595
REMARK  247  A    between atoms: _595  and  _596
REMARK  248  A    between atoms: _600  and  _602
REMARK  249  A    between atoms: _602  and  _603
REMARK  250  A    between atoms: _602  and  _605
REMARK  251  A    between atoms: _608  and  _610
REMARK  252  A    between atoms: _610  and  _611
REMARK  253  A    between atoms: _614  and  _616
REMARK  254  A    between atoms: _616  and  _617
REMARK  255  A    between atoms: _616  and  _619
REMARK  256  A    between atoms: _619  and  _620
REMARK  257  A    between atoms: _623  and  _625
REMARK  258  A    between atoms: _625  and  _626
REMARK  259  A    between atoms: _625  and  _628
REMARK  260  A    between atoms: _628  and  _629
REMARK  261  A    between atoms: _635  and  _637
REMARK  262  A    between atoms: _637  and  _638
REMARK                            x       y       z     vdW  Elec       q    Type
REMARK                         _______ _______ _______ _____ _____    ______ ____
ROOT
ATOM      1  O   HOH     1      19.873  -7.278   6.309  0.00  0.00    +0.000 OA
ENDROOT
TORSDOF 0
REMARK  Name = ../refined-set-2016/3u6i/3u6i_pocket.pdb
REMARK  262 active torsions:
REMARK  status: ('A' for Active; 'I' for Inactive)
REMARK    1  A    between atoms: _1  and  _3
REMARK    2  A    between atoms: _3  and  _4
REMARK    3  A    between atoms: _3  and  _6
REMARK    4  A    between atoms: _9  and  _11
REMARK    5  A    between atoms: _11  and  _12
REMARK    6  A    between atoms: _11  and  _14
REMARK    7  A    between atoms: _17  and  _19
REMARK    8  A    between atoms: _19  and  _20
REMARK    9  A    between atoms: _19  and  _22
REMARK   10  A    between atoms: _22  and  _23
REMARK   11  A    between atoms: _26  and  _28
REMARK   12  A    between atoms: _28  and  _29
REMARK   13  A    between atoms: _31  and  _33
REMARK   14  A    between atoms: _33  and  _34
REMARK   15  A    between atoms: _33  and  _36
REMARK   16  A    between atoms: _36  and  _37
REMARK   17  A    between atoms: _37  and  _38
REMARK   18  A    between atoms: _38  and  _39
REMARK   19  A    between atoms: _48  and  _50
REMARK   20  A    between atoms: _50  and  _51
REMARK   21  A    between atoms: _53  and  _55
REMARK   22  A    between atoms: _55  and  _56
REMARK   23  A    between atoms: _55  and  _58
REMARK   24  A    between atoms: _58  and  _59
REMARK   25  A    between atoms: _64  and  _66
REMARK   26  A    between atoms: _66  and  _67
REMARK   27  A    between atoms: _66  and  _69
REMARK   28  A    between atoms: _69  and  _70
REMARK   29  A    between atoms: _76  and  _78
REMARK   30  A    between atoms: _78  and  _79
REMARK   31  A    between atoms: _81  and  _83
REMARK   32  A    between atoms: _83  and  _84
REMARK   33  A    between atoms: _83  and  _86
REMARK   34  A    between atoms: _88  and  _90
REMARK   35  A    between atoms: _90  and  _91
REMARK   36  A    between atoms: _90  and  _93
REMARK   37  A    between atoms: _96  and  _98
REMARK   38  A    between atoms: _98  and  _99
REMARK   39  A    between atoms: _98  and  _101
REMARK   40  A    between atoms: _101  and  _102
REMARK   41  A    between atoms: _107  and  _108
REMARK   42  A    between atoms: _110  and  _112
REMARK   43  A    between atoms: _112  and  _113
REMARK   44  A    between atoms: _112  and  _115
REMARK   45  A    between atoms: _115  and  _116
REMARK   46  A    between atoms: _121  and  _123
REMARK   47  A    between atoms: _123  and  _124
REMARK   48  A    between atoms: _123  and  _126
REMARK   49  A    between atoms: _126  and  _127
REMARK   50  A    between atoms: _132  and  _134
REMARK   51  A    between atoms: _134  and  _135
REMARK   52  A    between atoms: _134  and  _137
REMARK   53  A    between atoms: _139  and  _141
REMARK   54  A    between atoms: _141  and  _142
REMARK   55  A    between atoms: _145  and  _147
REMARK   56  A    between atoms: _147  and  _148
REMARK   57  A    between atoms: _147  and  _150
REMARK   58  A    between atoms: _153  and  _155
REMARK   59  A    between atoms: _155  and  _156
REMARK   60  A    between atoms: _155  and  _158
REMARK   61  A    between atoms: _158  and  _159
REMARK   62  A    between atoms: _159  and  _160
REMARK   63  A    between atoms: _160  and  _161
REMARK   64  A    between atoms: _161  and  _162
REMARK   65  A    between atoms: _166  and  _168
REMARK   66  A    between atoms: _168  and  _169
REMARK   67  A    between atoms: _168  and  _171
REMARK   68  A    between atoms: _171  and  _172
REMARK   69  A    between atoms: _174  and  _176
REMARK   70  A    between atoms: _176  and  _177
REMARK   71  A    between atoms: _176  and  _179
REMARK   72  A    between atoms: _179  and  _180
REMARK   73  A    between atoms: _183  and  _185
REMARK   74  A    between atoms: _185  and  _186
REMARK   75  A    between atoms: _185  and  _188
REMARK   76  A    between atoms: _188  and  _189
REMARK   77  A    between atoms: _192  and  _194
REMARK   78  A    between atoms: _194  and  _195
REMARK   79  A    between atoms: _194  and  _197
REMARK   80  A    between atoms: _197  and  _198
REMARK   81  A    between atoms: _198  and  _199
REMARK   82  A    between atoms: _202  and  _204
REMARK   83  A    between atoms: _204  and  _205
REMARK   84  A    between atoms: _204  and  _207
REMARK   85  A    between atoms: _210  and  _212
REMARK   86  A    between atoms: _212  and  _213
REMARK   87  A    between atoms: _212  and  _215
REMARK   88  A    between atoms: _215  and  _216
REMARK   89  A    between atoms: _216  and  _217
REMARK   90  A    between atoms: _222  and  _224
REMARK   91  A    between atoms: _224  and  _225
REMARK   92  A    between atoms: _224  and  _227
REMARK   93  A    between atoms: _227  and  _228
REMARK   94  A    between atoms: _234  and  _236
REMARK   95  A    between atoms: _236  and  _237
REMARK   96  A    between atoms: _236  and  _239
REMARK   97  A    between atoms: _239  and  _240
REMARK   98  A    between atoms: _243  and  _245
REMARK   99  A    between atoms: _245  and  _246
REMARK  100  A    between atoms: _245  and  _248
REMARK  101  A    between atoms: _248  and  _249
REMARK  102  A    between atoms: _252  and  _254
REMARK  103  A    between atoms: _254  and  _255
REMARK  104  A    between atoms: _254  and  _257
REMARK  105  A    between atoms: _257  and  _258
REMARK  106  A    between atoms: _258  and  _259
REMARK  107  A    between atoms: _262  and  _264
REMARK  108  A    between atoms: _264  and  _265
REMARK  109  A    between atoms: _267  and  _269
REMARK  110  A    between atoms: _269  and  _270
REMARK  111  A    between atoms: _269  and  _272
REMARK  112  A    between atoms: _272  and  _273
REMARK  113  A    between atoms: _276  and  _278
REMARK  114  A    between atoms: _278  and  _279
REMARK  115  A    between atoms: _278  and  _281
REMARK  116  A    between atoms: _281  and  _282
REMARK  117  A    between atoms: _285  and  _287
REMARK  118  A    between atoms: _287  and  _288
REMARK  119  A    between atoms: _287  and  _290
REMARK  120  A    between atoms: _290  and  _291
REMARK  121  A    between atoms: _291  and  _292
REMARK  122  A    between atoms: _294  and  _296
REMARK  123  A    between atoms: _296  and  _297
REMARK  124  A    between atoms: _296  and  _299
REMARK  125  A    between atoms: _299  and  _300
REMARK  126  A    between atoms: _300  and  _301
REMARK  127  A    between atoms: _301  and  _302
REMARK  128  A    between atoms: _302  and  _303
REMARK  129  A    between atoms: _307  and  _309
REMARK  130  A    between atoms: _309  and  _310
REMARK  131  A    between atoms: _309  and  _312
REMARK  132  A    between atoms: _312  and  _313
REMARK  133  A    between atoms: _319  and  _321
REMARK  134  A    between atoms: _321  and  _322
REMARK  135  A    between atoms: _321  and  _324
REMARK  136  A    between atoms: _327  and  _329
REMARK  137  A    between atoms: _329  and  _330
REMARK  138  A    between atoms: _329  and  _332
REMARK  139  A    between atoms: _332  and  _333
REMARK  140  A    between atoms: _336  and  _338
REMARK  141  A    between atoms: _338  and  _339
REMARK  142  A    between atoms: _338  and  _341
REMARK  143  A    between atoms: _341  and  _342
REMARK  144  A    between atoms: _344  and  _346
REMARK  145  A    between atoms: _346  and  _347
REMARK  146  A    between atoms: _346  and  _349
REMARK  147  A    between atoms: _349  and  _350
REMARK  148  A    between atoms: _353  and  _355
REMARK  149  A    between atoms: _355  and  _356
REMARK  150  A    between atoms: _358  and  _360
REMARK  151  A    between atoms: _360  and  _361
REMARK  152  A    between atoms: _360  and  _363
REMARK  153  A    between atoms: _363  and  _364
REMARK  154  A    between atoms: _367  and  _369
REMARK  155  A    between atoms: _369  and  _370
REMARK  156  A    between atoms: _369  and  _372
REMARK  157  A    between atoms: _375  and  _376
REMARK  158  A    between atoms: _381  and  _383
REMARK  159  A    between atoms: _383  and  _384
REMARK  160  A    between atoms: _383  and  _386
REMARK  161  A    between atoms: _386  and  _387
REMARK  162  A    between atoms: _390  and  _392
REMARK  163  A    between atoms: _392  and  _393
REMARK  164  A    between atoms: _392  and  _395
REMARK  165  A    between atoms: _398  and  _400
REMARK  166  A    between atoms: _400  and  _401
REMARK  167  A    between atoms: _400  and  _403
REMARK  168  A    between atoms: _406  and  _408
REMARK  169  A    between atoms: _408  and  _409
REMARK  170  A    between atoms: _408  and  _411
REMARK  171  A    between atoms: _411  and  _412
REMARK  172  A    between atoms: _416  and  _417
REMARK  173  A    between atoms: _422  and  _424
REMARK  174  A    between atoms: _424  and  _425
REMARK  175  A    between atoms: _424  and  _427
REMARK  176  A    between atoms: _427  and  _428
REMARK  177  A    between atoms: _433  and  _434
REMARK  178  A    between atoms: _436  and  _438
REMARK  179  A    between atoms: _438  and  _439
REMARK  180  A    between atoms: _438  and  _441
REMARK  181  A    between atoms: _441  and  _442
REMARK  182  A    between atoms: _442  and  _443
REMARK  183  A    between atoms: _445  and  _447
REMARK  184  A    between atoms: _447  and  _448
REMARK  185  A    between atoms: _447  and  _450
REMARK  186  A    between atoms: _450  and  _451
REMARK  187  A    between atoms: _451  and  _452
REMARK  188  A    between atoms: _452  and  _453
REMARK  189  A    between atoms: _453  and  _454
REMARK  190  A    between atoms: _458  and  _460
REMARK  191  A    between atoms: _460  and  _461
REMARK  192  A    between atoms: _460  and  _463
REMARK  193  A    between atoms: _463  and  _464
REMARK  194  A    between atoms: _469  and  _471
REMARK  195  A    between atoms: _471  and  _472
REMARK  196  A    between atoms: _474  and  _476
REMARK  197  A    between atoms: _476  and  _477
REMARK  198  A    between atoms: _476  and  _479
REMARK  199  A    between atoms: _479  and  _480
REMARK  200  A    between atoms: _483  and  _485
REMARK  201  A    between atoms: _485  and  _486
REMARK  202  A    between atoms: _485  and  _488
REMARK  203  A    between atoms: _488  and  _489
REMARK  204  A    between atoms: _494  and  _496
REMARK  205  A    between atoms: _496  and  _497
REMARK  206  A    between atoms: _496  and  _499
REMARK  207  A    between atoms: _499  and  _500
REMARK  208  A    between atoms: _503  and  _505
REMARK  209  A    between atoms: _505  and  _506
REMARK  210  A    between atoms: _505  and  _508
REMARK  211  A    between atoms: _508  and  _509
REMARK  212  A    between atoms: _515  and  _517
REMARK  213  A    between atoms: _517  and  _518
REMARK  214  A    between atoms: _517  and  _520
REMARK  215  A    between atoms: _523  and  _525
REMARK  216  A    between atoms: _525  and  _526
REMARK  217  A    between atoms: _525  and  _528
REMARK  218  A    between atoms: _528  and  _529
REMARK  219  A    between atoms: _534  and  _536
REMARK  220  A    between atoms: _536  and  _537
REMARK  221  A    between atoms: _536  and  _539
REMARK  222  A    between atoms: _539  and  _540
REMARK  223  A    between atoms: _540  and  _541
REMARK  224  A    between atoms: _541  and  _542
REMARK  225  A    between atoms: _551  and  _553
REMARK  226  A    between atoms: _553  and  _554
REMARK  227  A    between atoms: _553  and  _556
REMARK  228  A    between atoms: _556  and  _557
REMARK  229  A    between atoms: _562  and  _564
REMARK  230  A    between atoms: _564  and  _565
REMARK  231  A    between atoms: _564  and  _567
REMARK  232  A    between atoms: _569  and  _571
REMARK  233  A    between atoms: _571  and  _572
REMARK  234  A    between atoms: _571  and  _574
REMARK  235  A    between atoms: _574  and  _575
REMARK  236  A    between atoms: _575  and  _576
REMARK  237  A    between atoms: _578  and  _580
REMARK  238  A    between atoms: _580  and  _581
REMARK  239  A    between atoms: _580  and  _583
REMARK  240  A    between atoms: _583  and  _584
REMARK  241  A    between atoms: _587  and  _589
REMARK  242  A    between atoms: _589  and  _590
REMARK  243  A    between atoms: _589  and  _592
REMARK  244  A    between atoms: _592  and  _593
REMARK  245  A    between atoms: _593  and  _594
REMARK  246  A    between atoms: _594  and  _595
REMARK  247  A    between atoms: _595  and  _596
REMARK  248  A    between atoms: _600  and  _602
REMARK  249  A    between atoms: _602  and  _603
REMARK  250  A    between atoms: _602  and  _605
REMARK  251  A    between atoms: _608  and  _610
REMARK  252  A    between atoms: _610  and  _611
REMARK  253  A    between atoms: _614  and  _616
REMARK  254  A    between atoms: _616  and  _617
REMARK  255  A    between atoms: _616  and  _619
REMARK  256  A    between atoms: _619  and  _620
REMARK  257  A    between atoms: _623  and  _625
REMARK  258  A    between atoms: _625  and  _626
REMARK  259  A    between atoms: _625  and  _628
REMARK  260  A    between atoms: _628  and  _629
REMARK  261  A    between atoms: _635  and  _637
REMARK  262  A    between atoms: _637  and  _638
REMARK                            x       y       z     vdW  Elec       q    Type
REMARK                         _______ _______ _______ _____ _____    ______ ____
ROOT
ATOM      1  O   HOH     1      20.787 -12.730  28.821  0.00  0.00    +0.000 OA
ENDROOT
TORSDOF 0
