REMARK  Name = ../refined-set-2016/5fl5/5fl5_pocket.pdb
REMARK  156 active torsions:
REMARK  status: ('A' for Active; 'I' for Inactive)
REMARK    1  A    between atoms: _1  and  _5
REMARK    2  A    between atoms: _5  and  _6
REMARK    3  A    between atoms: _5  and  _8
REMARK    4  A    between atoms: _8  and  _9
REMARK    5  A    between atoms: _19  and  _21
REMARK    6  A    between atoms: _21  and  _22
REMARK    7  A    between atoms: _21  and  _24
REMARK    8  A    between atoms: _24  and  _25
REMARK    9  A    between atoms: _30  and  _31
REMARK   10  A    between atoms: _33  and  _35
REMARK   11  A    between atoms: _35  and  _36
REMARK   12  A    between atoms: _35  and  _38
REMARK   13  A    between atoms: _38  and  _39
REMARK   14  A    between atoms: _42  and  _43
REMARK   15  A    between atoms: _48  and  _50
REMARK   16  A    between atoms: _50  and  _51
REMARK   17  A    between atoms: _50  and  _53
REMARK   18  A    between atoms: _53  and  _54
REMARK   19  A    between atoms: _59  and  _61
REMARK   20  A    between atoms: _61  and  _62
REMARK   21  A    between atoms: _61  and  _64
REMARK   22  A    between atoms: _64  and  _65
REMARK   23  A    between atoms: _67  and  _69
REMARK   24  A    between atoms: _69  and  _70
REMARK   25  A    between atoms: _69  and  _72
REMARK   26  A    between atoms: _72  and  _73
REMARK   27  A    between atoms: _73  and  _74
REMARK   28  A    between atoms: _79  and  _81
REMARK   29  A    between atoms: _81  and  _82
REMARK   30  A    between atoms: _81  and  _84
REMARK   31  A    between atoms: _84  and  _85
REMARK   32  A    between atoms: _88  and  _90
REMARK   33  A    between atoms: _90  and  _91
REMARK   34  A    between atoms: _90  and  _93
REMARK   35  A    between atoms: _93  and  _94
REMARK   36  A    between atoms: _94  and  _95
REMARK   37  A    between atoms: _100  and  _102
REMARK   38  A    between atoms: _102  and  _103
REMARK   39  A    between atoms: _102  and  _105
REMARK   40  A    between atoms: _105  and  _106
REMARK   41  A    between atoms: _109  and  _111
REMARK   42  A    between atoms: _122  and  _125
REMARK   43  A    between atoms: _125  and  _126
REMARK   44  A    between atoms: _131  and  _132
REMARK   45  A    between atoms: _140  and  _142
REMARK   46  A    between atoms: _142  and  _143
REMARK   47  A    between atoms: _142  and  _145
REMARK   48  A    between atoms: _145  and  _146
REMARK   49  A    between atoms: _146  and  _147
REMARK   50  A    between atoms: _150  and  _152
REMARK   51  A    between atoms: _152  and  _153
REMARK   52  A    between atoms: _152  and  _155
REMARK   53  A    between atoms: _155  and  _156
REMARK   54  A    between atoms: _161  and  _163
REMARK   55  A    between atoms: _163  and  _164
REMARK   56  A    between atoms: _163  and  _166
REMARK   57  A    between atoms: _166  and  _167
REMARK   58  A    between atoms: _167  and  _168
REMARK   59  A    between atoms: _171  and  _173
REMARK   60  A    between atoms: _173  and  _174
REMARK   61  A    between atoms: _173  and  _176
REMARK   62  A    between atoms: _176  and  _177
REMARK   63  A    between atoms: _180  and  _182
REMARK   64  A    between atoms: _182  and  _183
REMARK   65  A    between atoms: _182  and  _185
REMARK   66  A    between atoms: _185  and  _186
REMARK   67  A    between atoms: _187  and  ZN_429
REMARK   68  A    between atoms: _191  and  _193
REMARK   69  A    between atoms: _193  and  _194
REMARK   70  A    between atoms: _193  and  _196
REMARK   71  A    between atoms: _199  and  _201
REMARK   72  A    between atoms: _201  and  _202
REMARK   73  A    between atoms: _201  and  _204
REMARK   74  A    between atoms: _207  and  _209
REMARK   75  A    between atoms: _209  and  _210
REMARK   76  A    between atoms: _209  and  _212
REMARK   77  A    between atoms: _212  and  _213
REMARK   78  A    between atoms: _218  and  _220
REMARK   79  A    between atoms: _220  and  _221
REMARK   80  A    between atoms: _220  and  _223
REMARK   81  A    between atoms: _223  and  _224
REMARK   82  A    between atoms: _224  and  _225
REMARK   83  A    between atoms: _225  and  _226
REMARK   84  A    between atoms: _235  and  _237
REMARK   85  A    between atoms: _237  and  _238
REMARK   86  A    between atoms: _237  and  _240
REMARK   87  A    between atoms: _243  and  _245
REMARK   88  A    between atoms: _245  and  _246
REMARK   89  A    between atoms: _245  and  _248
REMARK   90  A    between atoms: _248  and  _249
REMARK   91  A    between atoms: _252  and  _254
REMARK   92  A    between atoms: _254  and  _255
REMARK   93  A    between atoms: _254  and  _257
REMARK   94  A    between atoms: _257  and  _258
REMARK   95  A    between atoms: _258  and  _259
REMARK   96  A    between atoms: _262  and  _264
REMARK   97  A    between atoms: _264  and  _265
REMARK   98  A    between atoms: _268  and  _270
REMARK   99  A    between atoms: _270  and  _271
REMARK  100  A    between atoms: _270  and  _273
REMARK  101  A    between atoms: _273  and  _274
REMARK  102  A    between atoms: _277  and  _279
REMARK  103  A    between atoms: _279  and  _280
REMARK  104  A    between atoms: _279  and  _282
REMARK  105  A    between atoms: _282  and  _283
REMARK  106  A    between atoms: _286  and  _288
REMARK  107  A    between atoms: _288  and  _289
REMARK  108  A    between atoms: _292  and  _294
REMARK  109  A    between atoms: _294  and  _295
REMARK  110  A    between atoms: _294  and  _297
REMARK  111  A    between atoms: _300  and  _302
REMARK  112  A    between atoms: _302  and  _303
REMARK  113  A    between atoms: _302  and  _305
REMARK  114  A    between atoms: _305  and  _306
REMARK  115  A    between atoms: _309  and  _311
REMARK  116  A    between atoms: _311  and  _312
REMARK  117  A    between atoms: _315  and  _317
REMARK  118  A    between atoms: _317  and  _318
REMARK  119  A    between atoms: _317  and  _320
REMARK  120  A    between atoms: _320  and  _321
REMARK  121  A    between atoms: _323  and  _325
REMARK  122  A    between atoms: _325  and  _326
REMARK  123  A    between atoms: _325  and  _328
REMARK  124  A    between atoms: _328  and  _329
REMARK  125  A    between atoms: _332  and  _334
REMARK  126  A    between atoms: _334  and  _335
REMARK  127  A    between atoms: _334  and  _337
REMARK  128  A    between atoms: _337  and  _338
REMARK  129  A    between atoms: _341  and  _343
REMARK  130  A    between atoms: _343  and  _344
REMARK  131  A    between atoms: _343  and  _346
REMARK  132  A    between atoms: _346  and  _347
REMARK  133  A    between atoms: _351  and  _352
REMARK  134  A    between atoms: _358  and  _359
REMARK  135  A    between atoms: _364  and  _366
REMARK  136  A    between atoms: _366  and  _367
REMARK  137  A    between atoms: _366  and  _369
REMARK  138  A    between atoms: _371  and  _373
REMARK  139  A    between atoms: _373  and  _374
REMARK  140  A    between atoms: _377  and  _379
REMARK  141  A    between atoms: _379  and  _380
REMARK  142  A    between atoms: _379  and  _382
REMARK  143  A    between atoms: _385  and  _387
REMARK  144  A    between atoms: _387  and  _388
REMARK  145  A    between atoms: _387  and  _390
REMARK  146  A    between atoms: _390  and  _391
REMARK  147  A    between atoms: _401  and  _403
REMARK  148  A    between atoms: _403  and  _404
REMARK  149  A    between atoms: _403  and  _406
REMARK  150  A    between atoms: _406  and  _407
REMARK  151  A    between atoms: _412  and  _414
REMARK  152  A    between atoms: _414  and  _415
REMARK  153  A    between atoms: _414  and  _417
REMARK  154  A    between atoms: _417  and  _418
REMARK  155  A    between atoms: _418  and  _419
REMARK  156  A    between atoms: _419  and  _420
REMARK                            x       y       z     vdW  Elec       q    Type
REMARK                         _______ _______ _______ _____ _____    ______ ____
ROOT
ATOM      1  CG  TRP A   1     -37.817  -7.897   2.493  0.00  0.00    -0.005 A 
ATOM      2  CD2 TRP A   1     -36.459  -8.233   2.825  0.00  0.00    +0.013 A 
ATOM      3  CE3 TRP A   1     -35.796  -9.439   3.130  0.00  0.00    +0.001 A 
ATOM      4  CZ3 TRP A   1     -34.432  -9.407   3.411  0.00  0.00    +0.000 A 
ATOM      5  CH2 TRP A   1     -33.714  -8.190   3.383  0.00  0.00    +0.001 A 
ATOM      6  CZ2 TRP A   1     -34.338  -6.991   3.097  0.00  0.00    +0.017 A 
ATOM      7  CE2 TRP A   1     -35.719  -7.032   2.805  0.00  0.00    +0.056 A 
ATOM      8  NE1 TRP A   1     -36.588  -6.021   2.472  0.00  0.00    -0.352 N 
ATOM      9  HE1 TRP A   1     -36.335  -5.017   2.372  0.00  0.00    +0.166 HD
ATOM     10  CD1 TRP A   1     -37.841  -6.545   2.293  0.00  0.00    +0.068 A 
ENDROOT
BRANCH   1  11
ATOM     11  CB  TRP A   1     -38.979  -8.839   2.395  0.00  0.00    +0.014 C 
BRANCH  11  12
ATOM     12  CA  TRP A   1     -39.683  -9.137   3.728  0.00  0.00    +0.005 C 
BRANCH  12  13
ATOM     13  N   TRP A   1     -40.488  -7.961   4.198  0.00  0.00    +0.387 N 
ATOM     14  H1  TRP A   1     -41.011  -8.222   5.058  0.00  0.00    -0.089 HD
ATOM     15  H2  TRP A   1     -39.850  -7.167   4.407  0.00  0.00    -0.089 HD
ATOM     16  H3  TRP A   1     -41.159  -7.682   3.454  0.00  0.00    -0.089 HD
ENDBRANCH  12  13
BRANCH  12  17
ATOM     17  C   TRP A   1     -38.674  -9.603   4.772  0.00  0.00    +0.185 C 
ATOM     18  O   TRP A   1     -38.204  -8.804   5.579  0.00  0.00    -0.291 OA
ENDBRANCH  12  17
ENDBRANCH  11  12
ENDBRANCH   1  11
TORSDOF 4
REMARK  Name = ../refined-set-2016/5fl5/5fl5_pocket.pdb
REMARK  156 active torsions:
REMARK  status: ('A' for Active; 'I' for Inactive)
REMARK    1  A    between atoms: _1  and  _5
REMARK    2  A    between atoms: _5  and  _6
REMARK    3  A    between atoms: _5  and  _8
REMARK    4  A    between atoms: _8  and  _9
REMARK    5  A    between atoms: _19  and  _21
REMARK    6  A    between atoms: _21  and  _22
REMARK    7  A    between atoms: _21  and  _24
REMARK    8  A    between atoms: _24  and  _25
REMARK    9  A    between atoms: _30  and  _31
REMARK   10  A    between atoms: _33  and  _35
REMARK   11  A    between atoms: _35  and  _36
REMARK   12  A    between atoms: _35  and  _38
REMARK   13  A    between atoms: _38  and  _39
REMARK   14  A    between atoms: _42  and  _43
REMARK   15  A    between atoms: _48  and  _50
REMARK   16  A    between atoms: _50  and  _51
REMARK   17  A    between atoms: _50  and  _53
REMARK   18  A    between atoms: _53  and  _54
REMARK   19  A    between atoms: _59  and  _61
REMARK   20  A    between atoms: _61  and  _62
REMARK   21  A    between atoms: _61  and  _64
REMARK   22  A    between atoms: _64  and  _65
REMARK   23  A    between atoms: _67  and  _69
REMARK   24  A    between atoms: _69  and  _70
REMARK   25  A    between atoms: _69  and  _72
REMARK   26  A    between atoms: _72  and  _73
REMARK   27  A    between atoms: _73  and  _74
REMARK   28  A    between atoms: _79  and  _81
REMARK   29  A    between atoms: _81  and  _82
REMARK   30  A    between atoms: _81  and  _84
REMARK   31  A    between atoms: _84  and  _85
REMARK   32  A    between atoms: _88  and  _90
REMARK   33  A    between atoms: _90  and  _91
REMARK   34  A    between atoms: _90  and  _93
REMARK   35  A    between atoms: _93  and  _94
REMARK   36  A    between atoms: _94  and  _95
REMARK   37  A    between atoms: _100  and  _102
REMARK   38  A    between atoms: _102  and  _103
REMARK   39  A    between atoms: _102  and  _105
REMARK   40  A    between atoms: _105  and  _106
REMARK   41  A    between atoms: _109  and  _111
REMARK   42  A    between atoms: _122  and  _125
REMARK   43  A    between atoms: _125  and  _126
REMARK   44  A    between atoms: _131  and  _132
REMARK   45  A    between atoms: _140  and  _142
REMARK   46  A    between atoms: _142  and  _143
REMARK   47  A    between atoms: _142  and  _145
REMARK   48  A    between atoms: _145  and  _146
REMARK   49  A    between atoms: _146  and  _147
REMARK   50  A    between atoms: _150  and  _152
REMARK   51  A    between atoms: _152  and  _153
REMARK   52  A    between atoms: _152  and  _155
REMARK   53  A    between atoms: _155  and  _156
REMARK   54  A    between atoms: _161  and  _163
REMARK   55  A    between atoms: _163  and  _164
REMARK   56  A    between atoms: _163  and  _166
REMARK   57  A    between atoms: _166  and  _167
REMARK   58  A    between atoms: _167  and  _168
REMARK   59  A    between atoms: _171  and  _173
REMARK   60  A    between atoms: _173  and  _174
REMARK   61  A    between atoms: _173  and  _176
REMARK   62  A    between atoms: _176  and  _177
REMARK   63  A    between atoms: _180  and  _182
REMARK   64  A    between atoms: _182  and  _183
REMARK   65  A    between atoms: _182  and  _185
REMARK   66  A    between atoms: _185  and  _186
REMARK   67  A    between atoms: _187  and  ZN_429
REMARK   68  A    between atoms: _191  and  _193
REMARK   69  A    between atoms: _193  and  _194
REMARK   70  A    between atoms: _193  and  _196
REMARK   71  A    between atoms: _199  and  _201
REMARK   72  A    between atoms: _201  and  _202
REMARK   73  A    between atoms: _201  and  _204
REMARK   74  A    between atoms: _207  and  _209
REMARK   75  A    between atoms: _209  and  _210
REMARK   76  A    between atoms: _209  and  _212
REMARK   77  A    between atoms: _212  and  _213
REMARK   78  A    between atoms: _218  and  _220
REMARK   79  A    between atoms: _220  and  _221
REMARK   80  A    between atoms: _220  and  _223
REMARK   81  A    between atoms: _223  and  _224
REMARK   82  A    between atoms: _224  and  _225
REMARK   83  A    between atoms: _225  and  _226
REMARK   84  A    between atoms: _235  and  _237
REMARK   85  A    between atoms: _237  and  _238
REMARK   86  A    between atoms: _237  and  _240
REMARK   87  A    between atoms: _243  and  _245
REMARK   88  A    between atoms: _245  and  _246
REMARK   89  A    between atoms: _245  and  _248
REMARK   90  A    between atoms: _248  and  _249
REMARK   91  A    between atoms: _252  and  _254
REMARK   92  A    between atoms: _254  and  _255
REMARK   93  A    between atoms: _254  and  _257
REMARK   94  A    between atoms: _257  and  _258
REMARK   95  A    between atoms: _258  and  _259
REMARK   96  A    between atoms: _262  and  _264
REMARK   97  A    between atoms: _264  and  _265
REMARK   98  A    between atoms: _268  and  _270
REMARK   99  A    between atoms: _270  and  _271
REMARK  100  A    between atoms: _270  and  _273
REMARK  101  A    between atoms: _273  and  _274
REMARK  102  A    between atoms: _277  and  _279
REMARK  103  A    between atoms: _279  and  _280
REMARK  104  A    between atoms: _279  and  _282
REMARK  105  A    between atoms: _282  and  _283
REMARK  106  A    between atoms: _286  and  _288
REMARK  107  A    between atoms: _288  and  _289
REMARK  108  A    between atoms: _292  and  _294
REMARK  109  A    between atoms: _294  and  _295
REMARK  110  A    between atoms: _294  and  _297
REMARK  111  A    between atoms: _300  and  _302
REMARK  112  A    between atoms: _302  and  _303
REMARK  113  A    between atoms: _302  and  _305
REMARK  114  A    between atoms: _305  and  _306
REMARK  115  A    between atoms: _309  and  _311
REMARK  116  A    between atoms: _311  and  _312
REMARK  117  A    between atoms: _315  and  _317
REMARK  118  A    between atoms: _317  and  _318
REMARK  119  A    between atoms: _317  and  _320
REMARK  120  A    between atoms: _320  and  _321
REMARK  121  A    between atoms: _323  and  _325
REMARK  122  A    between atoms: _325  and  _326
REMARK  123  A    between atoms: _325  and  _328
REMARK  124  A    between atoms: _328  and  _329
REMARK  125  A    between atoms: _332  and  _334
REMARK  126  A    between atoms: _334  and  _335
REMARK  127  A    between atoms: _334  and  _337
REMARK  128  A    between atoms: _337  and  _338
REMARK  129  A    between atoms: _341  and  _343
REMARK  130  A    between atoms: _343  and  _344
REMARK  131  A    between atoms: _343  and  _346
REMARK  132  A    between atoms: _346  and  _347
REMARK  133  A    between atoms: _351  and  _352
REMARK  134  A    between atoms: _358  and  _359
REMARK  135  A    between atoms: _364  and  _366
REMARK  136  A    between atoms: _366  and  _367
REMARK  137  A    between atoms: _366  and  _369
REMARK  138  A    between atoms: _371  and  _373
REMARK  139  A    between atoms: _373  and  _374
REMARK  140  A    between atoms: _377  and  _379
REMARK  141  A    between atoms: _379  and  _380
REMARK  142  A    between atoms: _379  and  _382
REMARK  143  A    between atoms: _385  and  _387
REMARK  144  A    between atoms: _387  and  _388
REMARK  145  A    between atoms: _387  and  _390
REMARK  146  A    between atoms: _390  and  _391
REMARK  147  A    between atoms: _401  and  _403
REMARK  148  A    between atoms: _403  and  _404
REMARK  149  A    between atoms: _403  and  _406
REMARK  150  A    between atoms: _406  and  _407
REMARK  151  A    between atoms: _412  and  _414
REMARK  152  A    between atoms: _414  and  _415
REMARK  153  A    between atoms: _414  and  _417
REMARK  154  A    between atoms: _417  and  _418
REMARK  155  A    between atoms: _418  and  _419
REMARK  156  A    between atoms: _419  and  _420
REMARK                            x       y       z     vdW  Elec       q    Type
REMARK                         _______ _______ _______ _____ _____    ______ ____
ROOT
ATOM      1  CG  TYR A   1     -32.384 -13.071   4.875  0.00  0.00    -0.020 A 
ATOM      2  CD2 TYR A   1     -32.117 -11.872   5.523  0.00  0.00    -0.001 A 
ATOM      3  CE2 TYR A   1     -31.374 -10.876   4.909  0.00  0.00    +0.036 A 
ATOM      4  CZ  TYR A   1     -30.884 -11.075   3.633  0.00  0.00    +0.134 A 
ATOM      5  CE1 TYR A   1     -31.153 -12.254   2.959  0.00  0.00    +0.036 A 
ATOM      6  CD1 TYR A   1     -31.891 -13.248   3.583  0.00  0.00    -0.001 A 
ENDROOT
BRANCH   4   7
ATOM      7  OH  TYR A   1     -30.145 -10.086   3.030  0.00  0.00    -0.506 OA
ATOM      8  HH  TYR A   1     -29.872 -10.384   2.126  0.00  0.00    +0.292 HD
ENDBRANCH   4   7
BRANCH   1   9
ATOM      9  CB  TYR A   1     -33.200 -14.143   5.543  0.00  0.00    +0.051 C 
BRANCH   9  10
ATOM     10  CA  TYR A   1     -34.670 -14.167   5.100  0.00  0.00    +0.137 C 
BRANCH  10  11
ATOM     11  N   TYR A   1     -35.366 -12.928   5.476  0.00  0.00    -0.239 NA
ATOM     12  H   TYR A   1     -34.944 -12.313   6.201  0.00  0.00    +0.142 HD
ENDBRANCH  10  11
BRANCH  10  13
ATOM     13  C   TYR A   1     -35.355 -15.398   5.711  0.00  0.00    +0.224 C 
ATOM     14  O   TYR A   1     -35.937 -15.319   6.777  0.00  0.00    -0.287 OA
ENDBRANCH  10  13
ENDBRANCH   9  10
ENDBRANCH   1   9
TORSDOF 5
REMARK  Name = ../refined-set-2016/5fl5/5fl5_pocket.pdb
REMARK  156 active torsions:
REMARK  status: ('A' for Active; 'I' for Inactive)
REMARK    1  A    between atoms: _1  and  _5
REMARK    2  A    between atoms: _5  and  _6
REMARK    3  A    between atoms: _5  and  _8
REMARK    4  A    between atoms: _8  and  _9
REMARK    5  A    between atoms: _19  and  _21
REMARK    6  A    between atoms: _21  and  _22
REMARK    7  A    between atoms: _21  and  _24
REMARK    8  A    between atoms: _24  and  _25
REMARK    9  A    between atoms: _30  and  _31
REMARK   10  A    between atoms: _33  and  _35
REMARK   11  A    between atoms: _35  and  _36
REMARK   12  A    between atoms: _35  and  _38
REMARK   13  A    between atoms: _38  and  _39
REMARK   14  A    between atoms: _42  and  _43
REMARK   15  A    between atoms: _48  and  _50
REMARK   16  A    between atoms: _50  and  _51
REMARK   17  A    between atoms: _50  and  _53
REMARK   18  A    between atoms: _53  and  _54
REMARK   19  A    between atoms: _59  and  _61
REMARK   20  A    between atoms: _61  and  _62
REMARK   21  A    between atoms: _61  and  _64
REMARK   22  A    between atoms: _64  and  _65
REMARK   23  A    between atoms: _67  and  _69
REMARK   24  A    between atoms: _69  and  _70
REMARK   25  A    between atoms: _69  and  _72
REMARK   26  A    between atoms: _72  and  _73
REMARK   27  A    between atoms: _73  and  _74
REMARK   28  A    between atoms: _79  and  _81
REMARK   29  A    between atoms: _81  and  _82
REMARK   30  A    between atoms: _81  and  _84
REMARK   31  A    between atoms: _84  and  _85
REMARK   32  A    between atoms: _88  and  _90
REMARK   33  A    between atoms: _90  and  _91
REMARK   34  A    between atoms: _90  and  _93
REMARK   35  A    between atoms: _93  and  _94
REMARK   36  A    between atoms: _94  and  _95
REMARK   37  A    between atoms: _100  and  _102
REMARK   38  A    between atoms: _102  and  _103
REMARK   39  A    between atoms: _102  and  _105
REMARK   40  A    between atoms: _105  and  _106
REMARK   41  A    between atoms: _109  and  _111
REMARK   42  A    between atoms: _122  and  _125
REMARK   43  A    between atoms: _125  and  _126
REMARK   44  A    between atoms: _131  and  _132
REMARK   45  A    between atoms: _140  and  _142
REMARK   46  A    between atoms: _142  and  _143
REMARK   47  A    between atoms: _142  and  _145
REMARK   48  A    between atoms: _145  and  _146
REMARK   49  A    between atoms: _146  and  _147
REMARK   50  A    between atoms: _150  and  _152
REMARK   51  A    between atoms: _152  and  _153
REMARK   52  A    between atoms: _152  and  _155
REMARK   53  A    between atoms: _155  and  _156
REMARK   54  A    between atoms: _161  and  _163
REMARK   55  A    between atoms: _163  and  _164
REMARK   56  A    between atoms: _163  and  _166
REMARK   57  A    between atoms: _166  and  _167
REMARK   58  A    between atoms: _167  and  _168
REMARK   59  A    between atoms: _171  and  _173
REMARK   60  A    between atoms: _173  and  _174
REMARK   61  A    between atoms: _173  and  _176
REMARK   62  A    between atoms: _176  and  _177
REMARK   63  A    between atoms: _180  and  _182
REMARK   64  A    between atoms: _182  and  _183
REMARK   65  A    between atoms: _182  and  _185
REMARK   66  A    between atoms: _185  and  _186
REMARK   67  A    between atoms: _187  and  ZN_429
REMARK   68  A    between atoms: _191  and  _193
REMARK   69  A    between atoms: _193  and  _194
REMARK   70  A    between atoms: _193  and  _196
REMARK   71  A    between atoms: _199  and  _201
REMARK   72  A    between atoms: _201  and  _202
REMARK   73  A    between atoms: _201  and  _204
REMARK   74  A    between atoms: _207  and  _209
REMARK   75  A    between atoms: _209  and  _210
REMARK   76  A    between atoms: _209  and  _212
REMARK   77  A    between atoms: _212  and  _213
REMARK   78  A    between atoms: _218  and  _220
REMARK   79  A    between atoms: _220  and  _221
REMARK   80  A    between atoms: _220  and  _223
REMARK   81  A    between atoms: _223  and  _224
REMARK   82  A    between atoms: _224  and  _225
REMARK   83  A    between atoms: _225  and  _226
REMARK   84  A    between atoms: _235  and  _237
REMARK   85  A    between atoms: _237  and  _238
REMARK   86  A    between atoms: _237  and  _240
REMARK   87  A    between atoms: _243  and  _245
REMARK   88  A    between atoms: _245  and  _246
REMARK   89  A    between atoms: _245  and  _248
REMARK   90  A    between atoms: _248  and  _249
REMARK   91  A    between atoms: _252  and  _254
REMARK   92  A    between atoms: _254  and  _255
REMARK   93  A    between atoms: _254  and  _257
REMARK   94  A    between atoms: _257  and  _258
REMARK   95  A    between atoms: _258  and  _259
REMARK   96  A    between atoms: _262  and  _264
REMARK   97  A    between atoms: _264  and  _265
REMARK   98  A    between atoms: _268  and  _270
REMARK   99  A    between atoms: _270  and  _271
REMARK  100  A    between atoms: _270  and  _273
REMARK  101  A    between atoms: _273  and  _274
REMARK  102  A    between atoms: _277  and  _279
REMARK  103  A    between atoms: _279  and  _280
REMARK  104  A    between atoms: _279  and  _282
REMARK  105  A    between atoms: _282  and  _283
REMARK  106  A    between atoms: _286  and  _288
REMARK  107  A    between atoms: _288  and  _289
REMARK  108  A    between atoms: _292  and  _294
REMARK  109  A    between atoms: _294  and  _295
REMARK  110  A    between atoms: _294  and  _297
REMARK  111  A    between atoms: _300  and  _302
REMARK  112  A    between atoms: _302  and  _303
REMARK  113  A    between atoms: _302  and  _305
REMARK  114  A    between atoms: _305  and  _306
REMARK  115  A    between atoms: _309  and  _311
REMARK  116  A    between atoms: _311  and  _312
REMARK  117  A    between atoms: _315  and  _317
REMARK  118  A    between atoms: _317  and  _318
REMARK  119  A    between atoms: _317  and  _320
REMARK  120  A    between atoms: _320  and  _321
REMARK  121  A    between atoms: _323  and  _325
REMARK  122  A    between atoms: _325  and  _326
REMARK  123  A    between atoms: _325  and  _328
REMARK  124  A    between atoms: _328  and  _329
REMARK  125  A    between atoms: _332  and  _334
REMARK  126  A    between atoms: _334  and  _335
REMARK  127  A    between atoms: _334  and  _337
REMARK  128  A    between atoms: _337  and  _338
REMARK  129  A    between atoms: _341  and  _343
REMARK  130  A    between atoms: _343  and  _344
REMARK  131  A    between atoms: _343  and  _346
REMARK  132  A    between atoms: _346  and  _347
REMARK  133  A    between atoms: _351  and  _352
REMARK  134  A    between atoms: _358  and  _359
REMARK  135  A    between atoms: _364  and  _366
REMARK  136  A    between atoms: _366  and  _367
REMARK  137  A    between atoms: _366  and  _369
REMARK  138  A    between atoms: _371  and  _373
REMARK  139  A    between atoms: _373  and  _374
REMARK  140  A    between atoms: _377  and  _379
REMARK  141  A    between atoms: _379  and  _380
REMARK  142  A    between atoms: _379  and  _382
REMARK  143  A    between atoms: _385  and  _387
REMARK  144  A    between atoms: _387  and  _388
REMARK  145  A    between atoms: _387  and  _390
REMARK  146  A    between atoms: _390  and  _391
REMARK  147  A    between atoms: _401  and  _403
REMARK  148  A    between atoms: _403  and  _404
REMARK  149  A    between atoms: _403  and  _406
REMARK  150  A    between atoms: _406  and  _407
REMARK  151  A    between atoms: _412  and  _414
REMARK  152  A    between atoms: _414  and  _415
REMARK  153  A    between atoms: _414  and  _417
REMARK  154  A    between atoms: _417  and  _418
REMARK  155  A    between atoms: _418  and  _419
REMARK  156  A    between atoms: _419  and  _420
REMARK                            x       y       z     vdW  Elec       q    Type
REMARK                         _______ _______ _______ _____ _____    ______ ____
ROOT
ATOM      1  C   SER A   1     -27.897 -12.085  -6.243  0.00  0.00    +0.244 C 
ATOM      2  N   PRO A   2     -27.013 -12.740  -5.478  0.00  0.00    -0.273 N 
ATOM      3  CD  PRO A   2     -27.343 -13.323  -4.165  0.00  0.00    +0.094 C 
ATOM      4  CG  PRO A   2     -26.062 -13.975  -3.732  0.00  0.00    +0.024 C 
ATOM      5  CB  PRO A   2     -24.981 -13.240  -4.462  0.00  0.00    +0.030 C 
ATOM      6  CA  PRO A   2     -25.621 -13.004  -5.831  0.00  0.00    +0.140 C 
ATOM      7  O   SER A   1     -29.053 -11.868  -5.874  0.00  0.00    -0.273 OA
ENDROOT
BRANCH   6   8
ATOM      8  C   PRO A   2     -25.472 -14.253  -6.691  0.00  0.00    +0.227 C 
ATOM      9  O   PRO A   2     -26.454 -14.940  -6.952  0.00  0.00    -0.286 OA
ENDBRANCH   6   8
BRANCH   1  10
ATOM     10  CA  SER A   1     -27.456 -11.565  -7.607  0.00  0.00    +0.175 C 
BRANCH  10  11
ATOM     11  N   SER A   1     -28.658 -11.403  -8.406  0.00  0.00    -0.236 NA
ATOM     12  H   SER A   1     -29.427 -10.820  -8.017  0.00  0.00    +0.142 HD
ENDBRANCH  10  11
BRANCH  10  13
ATOM     13  CB  SER A   1     -26.745 -10.229  -7.460  0.00  0.00    +0.163 C 
BRANCH  13  14
ATOM     14  OG  SER A   1     -26.280  -9.728  -8.716  0.00  0.00    -0.380 OA
ATOM     15  H   SER A   1     -25.644 -10.375  -9.113  0.00  0.00    +0.211 HD
ENDBRANCH  13  14
ENDBRANCH  10  13
ENDBRANCH   1  10
TORSDOF 5
REMARK  Name = ../refined-set-2016/5fl5/5fl5_pocket.pdb
REMARK  156 active torsions:
REMARK  status: ('A' for Active; 'I' for Inactive)
REMARK    1  A    between atoms: _1  and  _5
REMARK    2  A    between atoms: _5  and  _6
REMARK    3  A    between atoms: _5  and  _8
REMARK    4  A    between atoms: _8  and  _9
REMARK    5  A    between atoms: _19  and  _21
REMARK    6  A    between atoms: _21  and  _22
REMARK    7  A    between atoms: _21  and  _24
REMARK    8  A    between atoms: _24  and  _25
REMARK    9  A    between atoms: _30  and  _31
REMARK   10  A    between atoms: _33  and  _35
REMARK   11  A    between atoms: _35  and  _36
REMARK   12  A    between atoms: _35  and  _38
REMARK   13  A    between atoms: _38  and  _39
REMARK   14  A    between atoms: _42  and  _43
REMARK   15  A    between atoms: _48  and  _50
REMARK   16  A    between atoms: _50  and  _51
REMARK   17  A    between atoms: _50  and  _53
REMARK   18  A    between atoms: _53  and  _54
REMARK   19  A    between atoms: _59  and  _61
REMARK   20  A    between atoms: _61  and  _62
REMARK   21  A    between atoms: _61  and  _64
REMARK   22  A    between atoms: _64  and  _65
REMARK   23  A    between atoms: _67  and  _69
REMARK   24  A    between atoms: _69  and  _70
REMARK   25  A    between atoms: _69  and  _72
REMARK   26  A    between atoms: _72  and  _73
REMARK   27  A    between atoms: _73  and  _74
REMARK   28  A    between atoms: _79  and  _81
REMARK   29  A    between atoms: _81  and  _82
REMARK   30  A    between atoms: _81  and  _84
REMARK   31  A    between atoms: _84  and  _85
REMARK   32  A    between atoms: _88  and  _90
REMARK   33  A    between atoms: _90  and  _91
REMARK   34  A    between atoms: _90  and  _93
REMARK   35  A    between atoms: _93  and  _94
REMARK   36  A    between atoms: _94  and  _95
REMARK   37  A    between atoms: _100  and  _102
REMARK   38  A    between atoms: _102  and  _103
REMARK   39  A    between atoms: _102  and  _105
REMARK   40  A    between atoms: _105  and  _106
REMARK   41  A    between atoms: _109  and  _111
REMARK   42  A    between atoms: _122  and  _125
REMARK   43  A    between atoms: _125  and  _126
REMARK   44  A    between atoms: _131  and  _132
REMARK   45  A    between atoms: _140  and  _142
REMARK   46  A    between atoms: _142  and  _143
REMARK   47  A    between atoms: _142  and  _145
REMARK   48  A    between atoms: _145  and  _146
REMARK   49  A    between atoms: _146  and  _147
REMARK   50  A    between atoms: _150  and  _152
REMARK   51  A    between atoms: _152  and  _153
REMARK   52  A    between atoms: _152  and  _155
REMARK   53  A    between atoms: _155  and  _156
REMARK   54  A    between atoms: _161  and  _163
REMARK   55  A    between atoms: _163  and  _164
REMARK   56  A    between atoms: _163  and  _166
REMARK   57  A    between atoms: _166  and  _167
REMARK   58  A    between atoms: _167  and  _168
REMARK   59  A    between atoms: _171  and  _173
REMARK   60  A    between atoms: _173  and  _174
REMARK   61  A    between atoms: _173  and  _176
REMARK   62  A    between atoms: _176  and  _177
REMARK   63  A    between atoms: _180  and  _182
REMARK   64  A    between atoms: _182  and  _183
REMARK   65  A    between atoms: _182  and  _185
REMARK   66  A    between atoms: _185  and  _186
REMARK   67  A    between atoms: _187  and  ZN_429
REMARK   68  A    between atoms: _191  and  _193
REMARK   69  A    between atoms: _193  and  _194
REMARK   70  A    between atoms: _193  and  _196
REMARK   71  A    between atoms: _199  and  _201
REMARK   72  A    between atoms: _201  and  _202
REMARK   73  A    between atoms: _201  and  _204
REMARK   74  A    between atoms: _207  and  _209
REMARK   75  A    between atoms: _209  and  _210
REMARK   76  A    between atoms: _209  and  _212
REMARK   77  A    between atoms: _212  and  _213
REMARK   78  A    between atoms: _218  and  _220
REMARK   79  A    between atoms: _220  and  _221
REMARK   80  A    between atoms: _220  and  _223
REMARK   81  A    between atoms: _223  and  _224
REMARK   82  A    between atoms: _224  and  _225
REMARK   83  A    between atoms: _225  and  _226
REMARK   84  A    between atoms: _235  and  _237
REMARK   85  A    between atoms: _237  and  _238
REMARK   86  A    between atoms: _237  and  _240
REMARK   87  A    between atoms: _243  and  _245
REMARK   88  A    between atoms: _245  and  _246
REMARK   89  A    between atoms: _245  and  _248
REMARK   90  A    between atoms: _248  and  _249
REMARK   91  A    between atoms: _252  and  _254
REMARK   92  A    between atoms: _254  and  _255
REMARK   93  A    between atoms: _254  and  _257
REMARK   94  A    between atoms: _257  and  _258
REMARK   95  A    between atoms: _258  and  _259
REMARK   96  A    between atoms: _262  and  _264
REMARK   97  A    between atoms: _264  and  _265
REMARK   98  A    between atoms: _268  and  _270
REMARK   99  A    between atoms: _270  and  _271
REMARK  100  A    between atoms: _270  and  _273
REMARK  101  A    between atoms: _273  and  _274
REMARK  102  A    between atoms: _277  and  _279
REMARK  103  A    between atoms: _279  and  _280
REMARK  104  A    between atoms: _279  and  _282
REMARK  105  A    between atoms: _282  and  _283
REMARK  106  A    between atoms: _286  and  _288
REMARK  107  A    between atoms: _288  and  _289
REMARK  108  A    between atoms: _292  and  _294
REMARK  109  A    between atoms: _294  and  _295
REMARK  110  A    between atoms: _294  and  _297
REMARK  111  A    between atoms: _300  and  _302
REMARK  112  A    between atoms: _302  and  _303
REMARK  113  A    between atoms: _302  and  _305
REMARK  114  A    between atoms: _305  and  _306
REMARK  115  A    between atoms: _309  and  _311
REMARK  116  A    between atoms: _311  and  _312
REMARK  117  A    between atoms: _315  and  _317
REMARK  118  A    between atoms: _317  and  _318
REMARK  119  A    between atoms: _317  and  _320
REMARK  120  A    between atoms: _320  and  _321
REMARK  121  A    between atoms: _323  and  _325
REMARK  122  A    between atoms: _325  and  _326
REMARK  123  A    between atoms: _325  and  _328
REMARK  124  A    between atoms: _328  and  _329
REMARK  125  A    between atoms: _332  and  _334
REMARK  126  A    between atoms: _334  and  _335
REMARK  127  A    between atoms: _334  and  _337
REMARK  128  A    between atoms: _337  and  _338
REMARK  129  A    between atoms: _341  and  _343
REMARK  130  A    between atoms: _343  and  _344
REMARK  131  A    between atoms: _343  and  _346
REMARK  132  A    between atoms: _346  and  _347
REMARK  133  A    between atoms: _351  and  _352
REMARK  134  A    between atoms: _358  and  _359
REMARK  135  A    between atoms: _364  and  _366
REMARK  136  A    between atoms: _366  and  _367
REMARK  137  A    between atoms: _366  and  _369
REMARK  138  A    between atoms: _371  and  _373
REMARK  139  A    between atoms: _373  and  _374
REMARK  140  A    between atoms: _377  and  _379
REMARK  141  A    between atoms: _379  and  _380
REMARK  142  A    between atoms: _379  and  _382
REMARK  143  A    between atoms: _385  and  _387
REMARK  144  A    between atoms: _387  and  _388
REMARK  145  A    between atoms: _387  and  _390
REMARK  146  A    between atoms: _390  and  _391
REMARK  147  A    between atoms: _401  and  _403
REMARK  148  A    between atoms: _403  and  _404
REMARK  149  A    between atoms: _403  and  _406
REMARK  150  A    between atoms: _406  and  _407
REMARK  151  A    between atoms: _412  and  _414
REMARK  152  A    between atoms: _414  and  _415
REMARK  153  A    between atoms: _414  and  _417
REMARK  154  A    between atoms: _417  and  _418
REMARK  155  A    between atoms: _418  and  _419
REMARK  156  A    between atoms: _419  and  _420
REMARK                            x       y       z     vdW  Elec       q    Type
REMARK                         _______ _______ _______ _____ _____    ______ ____
ROOT
ATOM      1  CB  ASN A   1     -32.084  -1.953   8.839  0.00  0.00    +0.110 C 
ENDROOT
BRANCH   1   2
ATOM      2  CG  ASN A   1     -31.270  -2.866   7.932  0.00  0.00    +0.221 C 
ATOM      3  OD1 ASN A   1     -31.204  -4.081   8.131  0.00  0.00    -0.275 OA
ATOM      4  ND2 ASN A   1     -30.606  -2.272   6.959  0.00  0.00    -0.329 N 
ATOM      5 HD21 ASN A   1     -30.689  -1.244   6.825  0.00  0.00    +0.145 HD
ATOM      6 HD22 ASN A   1     -30.000  -2.832   6.326  0.00  0.00    +0.145 HD
ENDBRANCH   1   2
BRANCH   1   7
ATOM      7  CA  ASN A   1     -32.247  -2.511  10.260  0.00  0.00    +0.142 C 
BRANCH   7   8
ATOM      8  N   ASN A   1     -30.949  -2.639  10.927  0.00  0.00    -0.239 NA
ATOM      9  H   ASN A   1     -30.128  -2.990  10.394  0.00  0.00    +0.142 HD
ENDBRANCH   7   8
BRANCH   7  10
ATOM     10  C   ASN A   1     -33.059  -3.813  10.291  0.00  0.00    +0.225 C 
ATOM     11  O   ASN A   1     -34.034  -3.952   9.563  0.00  0.00    -0.287 OA
ENDBRANCH   7  10
ENDBRANCH   1   7
TORSDOF 4
REMARK  Name = ../refined-set-2016/5fl5/5fl5_pocket.pdb
REMARK  156 active torsions:
REMARK  status: ('A' for Active; 'I' for Inactive)
REMARK    1  A    between atoms: _1  and  _5
REMARK    2  A    between atoms: _5  and  _6
REMARK    3  A    between atoms: _5  and  _8
REMARK    4  A    between atoms: _8  and  _9
REMARK    5  A    between atoms: _19  and  _21
REMARK    6  A    between atoms: _21  and  _22
REMARK    7  A    between atoms: _21  and  _24
REMARK    8  A    between atoms: _24  and  _25
REMARK    9  A    between atoms: _30  and  _31
REMARK   10  A    between atoms: _33  and  _35
REMARK   11  A    between atoms: _35  and  _36
REMARK   12  A    between atoms: _35  and  _38
REMARK   13  A    between atoms: _38  and  _39
REMARK   14  A    between atoms: _42  and  _43
REMARK   15  A    between atoms: _48  and  _50
REMARK   16  A    between atoms: _50  and  _51
REMARK   17  A    between atoms: _50  and  _53
REMARK   18  A    between atoms: _53  and  _54
REMARK   19  A    between atoms: _59  and  _61
REMARK   20  A    between atoms: _61  and  _62
REMARK   21  A    between atoms: _61  and  _64
REMARK   22  A    between atoms: _64  and  _65
REMARK   23  A    between atoms: _67  and  _69
REMARK   24  A    between atoms: _69  and  _70
REMARK   25  A    between atoms: _69  and  _72
REMARK   26  A    between atoms: _72  and  _73
REMARK   27  A    between atoms: _73  and  _74
REMARK   28  A    between atoms: _79  and  _81
REMARK   29  A    between atoms: _81  and  _82
REMARK   30  A    between atoms: _81  and  _84
REMARK   31  A    between atoms: _84  and  _85
REMARK   32  A    between atoms: _88  and  _90
REMARK   33  A    between atoms: _90  and  _91
REMARK   34  A    between atoms: _90  and  _93
REMARK   35  A    between atoms: _93  and  _94
REMARK   36  A    between atoms: _94  and  _95
REMARK   37  A    between atoms: _100  and  _102
REMARK   38  A    between atoms: _102  and  _103
REMARK   39  A    between atoms: _102  and  _105
REMARK   40  A    between atoms: _105  and  _106
REMARK   41  A    between atoms: _109  and  _111
REMARK   42  A    between atoms: _122  and  _125
REMARK   43  A    between atoms: _125  and  _126
REMARK   44  A    between atoms: _131  and  _132
REMARK   45  A    between atoms: _140  and  _142
REMARK   46  A    between atoms: _142  and  _143
REMARK   47  A    between atoms: _142  and  _145
REMARK   48  A    between atoms: _145  and  _146
REMARK   49  A    between atoms: _146  and  _147
REMARK   50  A    between atoms: _150  and  _152
REMARK   51  A    between atoms: _152  and  _153
REMARK   52  A    between atoms: _152  and  _155
REMARK   53  A    between atoms: _155  and  _156
REMARK   54  A    between atoms: _161  and  _163
REMARK   55  A    between atoms: _163  and  _164
REMARK   56  A    between atoms: _163  and  _166
REMARK   57  A    between atoms: _166  and  _167
REMARK   58  A    between atoms: _167  and  _168
REMARK   59  A    between atoms: _171  and  _173
REMARK   60  A    between atoms: _173  and  _174
REMARK   61  A    between atoms: _173  and  _176
REMARK   62  A    between atoms: _176  and  _177
REMARK   63  A    between atoms: _180  and  _182
REMARK   64  A    between atoms: _182  and  _183
REMARK   65  A    between atoms: _182  and  _185
REMARK   66  A    between atoms: _185  and  _186
REMARK   67  A    between atoms: _187  and  ZN_429
REMARK   68  A    between atoms: _191  and  _193
REMARK   69  A    between atoms: _193  and  _194
REMARK   70  A    between atoms: _193  and  _196
REMARK   71  A    between atoms: _199  and  _201
REMARK   72  A    between atoms: _201  and  _202
REMARK   73  A    between atoms: _201  and  _204
REMARK   74  A    between atoms: _207  and  _209
REMARK   75  A    between atoms: _209  and  _210
REMARK   76  A    between atoms: _209  and  _212
REMARK   77  A    between atoms: _212  and  _213
REMARK   78  A    between atoms: _218  and  _220
REMARK   79  A    between atoms: _220  and  _221
REMARK   80  A    between atoms: _220  and  _223
REMARK   81  A    between atoms: _223  and  _224
REMARK   82  A    between atoms: _224  and  _225
REMARK   83  A    between atoms: _225  and  _226
REMARK   84  A    between atoms: _235  and  _237
REMARK   85  A    between atoms: _237  and  _238
REMARK   86  A    between atoms: _237  and  _240
REMARK   87  A    between atoms: _243  and  _245
REMARK   88  A    between atoms: _245  and  _246
REMARK   89  A    between atoms: _245  and  _248
REMARK   90  A    between atoms: _248  and  _249
REMARK   91  A    between atoms: _252  and  _254
REMARK   92  A    between atoms: _254  and  _255
REMARK   93  A    between atoms: _254  and  _257
REMARK   94  A    between atoms: _257  and  _258
REMARK   95  A    between atoms: _258  and  _259
REMARK   96  A    between atoms: _262  and  _264
REMARK   97  A    between atoms: _264  and  _265
REMARK   98  A    between atoms: _268  and  _270
REMARK   99  A    between atoms: _270  and  _271
REMARK  100  A    between atoms: _270  and  _273
REMARK  101  A    between atoms: _273  and  _274
REMARK  102  A    between atoms: _277  and  _279
REMARK  103  A    between atoms: _279  and  _280
REMARK  104  A    between atoms: _279  and  _282
REMARK  105  A    between atoms: _282  and  _283
REMARK  106  A    between atoms: _286  and  _288
REMARK  107  A    between atoms: _288  and  _289
REMARK  108  A    between atoms: _292  and  _294
REMARK  109  A    between atoms: _294  and  _295
REMARK  110  A    between atoms: _294  and  _297
REMARK  111  A    between atoms: _300  and  _302
REMARK  112  A    between atoms: _302  and  _303
REMARK  113  A    between atoms: _302  and  _305
REMARK  114  A    between atoms: _305  and  _306
REMARK  115  A    between atoms: _309  and  _311
REMARK  116  A    between atoms: _311  and  _312
REMARK  117  A    between atoms: _315  and  _317
REMARK  118  A    between atoms: _317  and  _318
REMARK  119  A    between atoms: _317  and  _320
REMARK  120  A    between atoms: _320  and  _321
REMARK  121  A    between atoms: _323  and  _325
REMARK  122  A    between atoms: _325  and  _326
REMARK  123  A    between atoms: _325  and  _328
REMARK  124  A    between atoms: _328  and  _329
REMARK  125  A    between atoms: _332  and  _334
REMARK  126  A    between atoms: _334  and  _335
REMARK  127  A    between atoms: _334  and  _337
REMARK  128  A    between atoms: _337  and  _338
REMARK  129  A    between atoms: _341  and  _343
REMARK  130  A    between atoms: _343  and  _344
REMARK  131  A    between atoms: _343  and  _346
REMARK  132  A    between atoms: _346  and  _347
REMARK  133  A    between atoms: _351  and  _352
REMARK  134  A    between atoms: _358  and  _359
REMARK  135  A    between atoms: _364  and  _366
REMARK  136  A    between atoms: _366  and  _367
REMARK  137  A    between atoms: _366  and  _369
REMARK  138  A    between atoms: _371  and  _373
REMARK  139  A    between atoms: _373  and  _374
REMARK  140  A    between atoms: _377  and  _379
REMARK  141  A    between atoms: _379  and  _380
REMARK  142  A    between atoms: _379  and  _382
REMARK  143  A    between atoms: _385  and  _387
REMARK  144  A    between atoms: _387  and  _388
REMARK  145  A    between atoms: _387  and  _390
REMARK  146  A    between atoms: _390  and  _391
REMARK  147  A    between atoms: _401  and  _403
REMARK  148  A    between atoms: _403  and  _404
REMARK  149  A    between atoms: _403  and  _406
REMARK  150  A    between atoms: _406  and  _407
REMARK  151  A    between atoms: _412  and  _414
REMARK  152  A    between atoms: _414  and  _415
REMARK  153  A    between atoms: _414  and  _417
REMARK  154  A    between atoms: _417  and  _418
REMARK  155  A    between atoms: _418  and  _419
REMARK  156  A    between atoms: _419  and  _420
REMARK                            x       y       z     vdW  Elec       q    Type
REMARK                         _______ _______ _______ _____ _____    ______ ____
ROOT
ATOM      1  CA  SER A   1     -28.056  -6.116   8.280  0.00  0.00    +0.163 C 
ENDROOT
BRANCH   1   2
ATOM      2  N   SER A   1     -29.484  -6.307   8.344  0.00  0.00    -0.237 NA
ATOM      3  H   SER A   1     -30.062  -5.588   8.823  0.00  0.00    +0.142 HD
ENDBRANCH   1   2
BRANCH   1   4
ATOM      4  CB  SER A   1     -27.679  -5.061   9.283  0.00  0.00    +0.227 C 
ATOM      5  OG  SER A   1     -28.542  -4.500   9.970  0.00  0.00    -0.287 OA
ENDBRANCH   1   4
BRANCH   1   6
ATOM      6  C   SER A   1     -27.612  -5.671   6.870  0.00  0.00    +0.162 C 
BRANCH   6   7
ATOM      7  O   SER A   1     -26.194  -5.738   6.779  0.00  0.00    -0.380 OA
ATOM      8  H   SER A   1     -25.898  -6.669   6.942  0.00  0.00    +0.211 HD
ENDBRANCH   6   7
ENDBRANCH   1   6
TORSDOF 4
REMARK  Name = ../refined-set-2016/5fl5/5fl5_pocket.pdb
REMARK  156 active torsions:
REMARK  status: ('A' for Active; 'I' for Inactive)
REMARK    1  A    between atoms: _1  and  _5
REMARK    2  A    between atoms: _5  and  _6
REMARK    3  A    between atoms: _5  and  _8
REMARK    4  A    between atoms: _8  and  _9
REMARK    5  A    between atoms: _19  and  _21
REMARK    6  A    between atoms: _21  and  _22
REMARK    7  A    between atoms: _21  and  _24
REMARK    8  A    between atoms: _24  and  _25
REMARK    9  A    between atoms: _30  and  _31
REMARK   10  A    between atoms: _33  and  _35
REMARK   11  A    between atoms: _35  and  _36
REMARK   12  A    between atoms: _35  and  _38
REMARK   13  A    between atoms: _38  and  _39
REMARK   14  A    between atoms: _42  and  _43
REMARK   15  A    between atoms: _48  and  _50
REMARK   16  A    between atoms: _50  and  _51
REMARK   17  A    between atoms: _50  and  _53
REMARK   18  A    between atoms: _53  and  _54
REMARK   19  A    between atoms: _59  and  _61
REMARK   20  A    between atoms: _61  and  _62
REMARK   21  A    between atoms: _61  and  _64
REMARK   22  A    between atoms: _64  and  _65
REMARK   23  A    between atoms: _67  and  _69
REMARK   24  A    between atoms: _69  and  _70
REMARK   25  A    between atoms: _69  and  _72
REMARK   26  A    between atoms: _72  and  _73
REMARK   27  A    between atoms: _73  and  _74
REMARK   28  A    between atoms: _79  and  _81
REMARK   29  A    between atoms: _81  and  _82
REMARK   30  A    between atoms: _81  and  _84
REMARK   31  A    between atoms: _84  and  _85
REMARK   32  A    between atoms: _88  and  _90
REMARK   33  A    between atoms: _90  and  _91
REMARK   34  A    between atoms: _90  and  _93
REMARK   35  A    between atoms: _93  and  _94
REMARK   36  A    between atoms: _94  and  _95
REMARK   37  A    between atoms: _100  and  _102
REMARK   38  A    between atoms: _102  and  _103
REMARK   39  A    between atoms: _102  and  _105
REMARK   40  A    between atoms: _105  and  _106
REMARK   41  A    between atoms: _109  and  _111
REMARK   42  A    between atoms: _122  and  _125
REMARK   43  A    between atoms: _125  and  _126
REMARK   44  A    between atoms: _131  and  _132
REMARK   45  A    between atoms: _140  and  _142
REMARK   46  A    between atoms: _142  and  _143
REMARK   47  A    between atoms: _142  and  _145
REMARK   48  A    between atoms: _145  and  _146
REMARK   49  A    between atoms: _146  and  _147
REMARK   50  A    between atoms: _150  and  _152
REMARK   51  A    between atoms: _152  and  _153
REMARK   52  A    between atoms: _152  and  _155
REMARK   53  A    between atoms: _155  and  _156
REMARK   54  A    between atoms: _161  and  _163
REMARK   55  A    between atoms: _163  and  _164
REMARK   56  A    between atoms: _163  and  _166
REMARK   57  A    between atoms: _166  and  _167
REMARK   58  A    between atoms: _167  and  _168
REMARK   59  A    between atoms: _171  and  _173
REMARK   60  A    between atoms: _173  and  _174
REMARK   61  A    between atoms: _173  and  _176
REMARK   62  A    between atoms: _176  and  _177
REMARK   63  A    between atoms: _180  and  _182
REMARK   64  A    between atoms: _182  and  _183
REMARK   65  A    between atoms: _182  and  _185
REMARK   66  A    between atoms: _185  and  _186
REMARK   67  A    between atoms: _187  and  ZN_429
REMARK   68  A    between atoms: _191  and  _193
REMARK   69  A    between atoms: _193  and  _194
REMARK   70  A    between atoms: _193  and  _196
REMARK   71  A    between atoms: _199  and  _201
REMARK   72  A    between atoms: _201  and  _202
REMARK   73  A    between atoms: _201  and  _204
REMARK   74  A    between atoms: _207  and  _209
REMARK   75  A    between atoms: _209  and  _210
REMARK   76  A    between atoms: _209  and  _212
REMARK   77  A    between atoms: _212  and  _213
REMARK   78  A    between atoms: _218  and  _220
REMARK   79  A    between atoms: _220  and  _221
REMARK   80  A    between atoms: _220  and  _223
REMARK   81  A    between atoms: _223  and  _224
REMARK   82  A    between atoms: _224  and  _225
REMARK   83  A    between atoms: _225  and  _226
REMARK   84  A    between atoms: _235  and  _237
REMARK   85  A    between atoms: _237  and  _238
REMARK   86  A    between atoms: _237  and  _240
REMARK   87  A    between atoms: _243  and  _245
REMARK   88  A    between atoms: _245  and  _246
REMARK   89  A    between atoms: _245  and  _248
REMARK   90  A    between atoms: _248  and  _249
REMARK   91  A    between atoms: _252  and  _254
REMARK   92  A    between atoms: _254  and  _255
REMARK   93  A    between atoms: _254  and  _257
REMARK   94  A    between atoms: _257  and  _258
REMARK   95  A    between atoms: _258  and  _259
REMARK   96  A    between atoms: _262  and  _264
REMARK   97  A    between atoms: _264  and  _265
REMARK   98  A    between atoms: _268  and  _270
REMARK   99  A    between atoms: _270  and  _271
REMARK  100  A    between atoms: _270  and  _273
REMARK  101  A    between atoms: _273  and  _274
REMARK  102  A    between atoms: _277  and  _279
REMARK  103  A    between atoms: _279  and  _280
REMARK  104  A    between atoms: _279  and  _282
REMARK  105  A    between atoms: _282  and  _283
REMARK  106  A    between atoms: _286  and  _288
REMARK  107  A    between atoms: _288  and  _289
REMARK  108  A    between atoms: _292  and  _294
REMARK  109  A    between atoms: _294  and  _295
REMARK  110  A    between atoms: _294  and  _297
REMARK  111  A    between atoms: _300  and  _302
REMARK  112  A    between atoms: _302  and  _303
REMARK  113  A    between atoms: _302  and  _305
REMARK  114  A    between atoms: _305  and  _306
REMARK  115  A    between atoms: _309  and  _311
REMARK  116  A    between atoms: _311  and  _312
REMARK  117  A    between atoms: _315  and  _317
REMARK  118  A    between atoms: _317  and  _318
REMARK  119  A    between atoms: _317  and  _320
REMARK  120  A    between atoms: _320  and  _321
REMARK  121  A    between atoms: _323  and  _325
REMARK  122  A    between atoms: _325  and  _326
REMARK  123  A    between atoms: _325  and  _328
REMARK  124  A    between atoms: _328  and  _329
REMARK  125  A    between atoms: _332  and  _334
REMARK  126  A    between atoms: _334  and  _335
REMARK  127  A    between atoms: _334  and  _337
REMARK  128  A    between atoms: _337  and  _338
REMARK  129  A    between atoms: _341  and  _343
REMARK  130  A    between atoms: _343  and  _344
REMARK  131  A    between atoms: _343  and  _346
REMARK  132  A    between atoms: _346  and  _347
REMARK  133  A    between atoms: _351  and  _352
REMARK  134  A    between atoms: _358  and  _359
REMARK  135  A    between atoms: _364  and  _366
REMARK  136  A    between atoms: _366  and  _367
REMARK  137  A    between atoms: _366  and  _369
REMARK  138  A    between atoms: _371  and  _373
REMARK  139  A    between atoms: _373  and  _374
REMARK  140  A    between atoms: _377  and  _379
REMARK  141  A    between atoms: _379  and  _380
REMARK  142  A    between atoms: _379  and  _382
REMARK  143  A    between atoms: _385  and  _387
REMARK  144  A    between atoms: _387  and  _388
REMARK  145  A    between atoms: _387  and  _390
REMARK  146  A    between atoms: _390  and  _391
REMARK  147  A    between atoms: _401  and  _403
REMARK  148  A    between atoms: _403  and  _404
REMARK  149  A    between atoms: _403  and  _406
REMARK  150  A    between atoms: _406  and  _407
REMARK  151  A    between atoms: _412  and  _414
REMARK  152  A    between atoms: _414  and  _415
REMARK  153  A    between atoms: _414  and  _417
REMARK  154  A    between atoms: _417  and  _418
REMARK  155  A    between atoms: _418  and  _419
REMARK  156  A    between atoms: _419  and  _420
REMARK                            x       y       z     vdW  Elec       q    Type
REMARK                         _______ _______ _______ _____ _____    ______ ____
ROOT
ATOM      1  CB  GLN A   1     -27.042  -0.277   7.045  0.00  0.00    +0.035 C 
ENDROOT
BRANCH   1   2
ATOM      2  CA  GLN A   1     -25.735  -0.555   7.777  0.00  0.00    +0.134 C 
BRANCH   2   3
ATOM      3  N   GLN A   1     -25.966  -1.499   8.868  0.00  0.00    -0.239 NA
ATOM      4  H   GLN A   1     -26.565  -1.198   9.663  0.00  0.00    +0.142 HD
ENDBRANCH   2   3
BRANCH   2   5
ATOM      5  C   GLN A   1     -25.130   0.748   8.285  0.00  0.00    +0.224 C 
ATOM      6  O   GLN A   1     -25.656   1.354   9.234  0.00  0.00    -0.287 OA
ENDBRANCH   2   5
ENDBRANCH   1   2
BRANCH   1   7
ATOM      7  CG  GLN A   1     -26.910   0.741   5.927  0.00  0.00    +0.087 C 
BRANCH   7   8
ATOM      8  CD  GLN A   1     -27.980   0.661   4.865  0.00  0.00    +0.219 C 
ATOM      9  NE2 GLN A   1     -28.331  -0.529   4.477  0.00  0.00    -0.329 N 
ATOM     10 HE21 GLN A   1     -27.912  -1.368   4.927  0.00  0.00    +0.145 HD
ATOM     11 HE22 GLN A   1     -29.031  -0.643   3.716  0.00  0.00    +0.145 HD
ATOM     12  OE1 GLN A   1     -28.448   1.677   4.363  0.00  0.00    -0.275 OA
ENDBRANCH   7   8
ENDBRANCH   1   7
TORSDOF 5
REMARK  Name = ../refined-set-2016/5fl5/5fl5_pocket.pdb
REMARK  156 active torsions:
REMARK  status: ('A' for Active; 'I' for Inactive)
REMARK    1  A    between atoms: _1  and  _5
REMARK    2  A    between atoms: _5  and  _6
REMARK    3  A    between atoms: _5  and  _8
REMARK    4  A    between atoms: _8  and  _9
REMARK    5  A    between atoms: _19  and  _21
REMARK    6  A    between atoms: _21  and  _22
REMARK    7  A    between atoms: _21  and  _24
REMARK    8  A    between atoms: _24  and  _25
REMARK    9  A    between atoms: _30  and  _31
REMARK   10  A    between atoms: _33  and  _35
REMARK   11  A    between atoms: _35  and  _36
REMARK   12  A    between atoms: _35  and  _38
REMARK   13  A    between atoms: _38  and  _39
REMARK   14  A    between atoms: _42  and  _43
REMARK   15  A    between atoms: _48  and  _50
REMARK   16  A    between atoms: _50  and  _51
REMARK   17  A    between atoms: _50  and  _53
REMARK   18  A    between atoms: _53  and  _54
REMARK   19  A    between atoms: _59  and  _61
REMARK   20  A    between atoms: _61  and  _62
REMARK   21  A    between atoms: _61  and  _64
REMARK   22  A    between atoms: _64  and  _65
REMARK   23  A    between atoms: _67  and  _69
REMARK   24  A    between atoms: _69  and  _70
REMARK   25  A    between atoms: _69  and  _72
REMARK   26  A    between atoms: _72  and  _73
REMARK   27  A    between atoms: _73  and  _74
REMARK   28  A    between atoms: _79  and  _81
REMARK   29  A    between atoms: _81  and  _82
REMARK   30  A    between atoms: _81  and  _84
REMARK   31  A    between atoms: _84  and  _85
REMARK   32  A    between atoms: _88  and  _90
REMARK   33  A    between atoms: _90  and  _91
REMARK   34  A    between atoms: _90  and  _93
REMARK   35  A    between atoms: _93  and  _94
REMARK   36  A    between atoms: _94  and  _95
REMARK   37  A    between atoms: _100  and  _102
REMARK   38  A    between atoms: _102  and  _103
REMARK   39  A    between atoms: _102  and  _105
REMARK   40  A    between atoms: _105  and  _106
REMARK   41  A    between atoms: _109  and  _111
REMARK   42  A    between atoms: _122  and  _125
REMARK   43  A    between atoms: _125  and  _126
REMARK   44  A    between atoms: _131  and  _132
REMARK   45  A    between atoms: _140  and  _142
REMARK   46  A    between atoms: _142  and  _143
REMARK   47  A    between atoms: _142  and  _145
REMARK   48  A    between atoms: _145  and  _146
REMARK   49  A    between atoms: _146  and  _147
REMARK   50  A    between atoms: _150  and  _152
REMARK   51  A    between atoms: _152  and  _153
REMARK   52  A    between atoms: _152  and  _155
REMARK   53  A    between atoms: _155  and  _156
REMARK   54  A    between atoms: _161  and  _163
REMARK   55  A    between atoms: _163  and  _164
REMARK   56  A    between atoms: _163  and  _166
REMARK   57  A    between atoms: _166  and  _167
REMARK   58  A    between atoms: _167  and  _168
REMARK   59  A    between atoms: _171  and  _173
REMARK   60  A    between atoms: _173  and  _174
REMARK   61  A    between atoms: _173  and  _176
REMARK   62  A    between atoms: _176  and  _177
REMARK   63  A    between atoms: _180  and  _182
REMARK   64  A    between atoms: _182  and  _183
REMARK   65  A    between atoms: _182  and  _185
REMARK   66  A    between atoms: _185  and  _186
REMARK   67  A    between atoms: _187  and  ZN_429
REMARK   68  A    between atoms: _191  and  _193
REMARK   69  A    between atoms: _193  and  _194
REMARK   70  A    between atoms: _193  and  _196
REMARK   71  A    between atoms: _199  and  _201
REMARK   72  A    between atoms: _201  and  _202
REMARK   73  A    between atoms: _201  and  _204
REMARK   74  A    between atoms: _207  and  _209
REMARK   75  A    between atoms: _209  and  _210
REMARK   76  A    between atoms: _209  and  _212
REMARK   77  A    between atoms: _212  and  _213
REMARK   78  A    between atoms: _218  and  _220
REMARK   79  A    between atoms: _220  and  _221
REMARK   80  A    between atoms: _220  and  _223
REMARK   81  A    between atoms: _223  and  _224
REMARK   82  A    between atoms: _224  and  _225
REMARK   83  A    between atoms: _225  and  _226
REMARK   84  A    between atoms: _235  and  _237
REMARK   85  A    between atoms: _237  and  _238
REMARK   86  A    between atoms: _237  and  _240
REMARK   87  A    between atoms: _243  and  _245
REMARK   88  A    between atoms: _245  and  _246
REMARK   89  A    between atoms: _245  and  _248
REMARK   90  A    between atoms: _248  and  _249
REMARK   91  A    between atoms: _252  and  _254
REMARK   92  A    between atoms: _254  and  _255
REMARK   93  A    between atoms: _254  and  _257
REMARK   94  A    between atoms: _257  and  _258
REMARK   95  A    between atoms: _258  and  _259
REMARK   96  A    between atoms: _262  and  _264
REMARK   97  A    between atoms: _264  and  _265
REMARK   98  A    between atoms: _268  and  _270
REMARK   99  A    between atoms: _270  and  _271
REMARK  100  A    between atoms: _270  and  _273
REMARK  101  A    between atoms: _273  and  _274
REMARK  102  A    between atoms: _277  and  _279
REMARK  103  A    between atoms: _279  and  _280
REMARK  104  A    between atoms: _279  and  _282
REMARK  105  A    between atoms: _282  and  _283
REMARK  106  A    between atoms: _286  and  _288
REMARK  107  A    between atoms: _288  and  _289
REMARK  108  A    between atoms: _292  and  _294
REMARK  109  A    between atoms: _294  and  _295
REMARK  110  A    between atoms: _294  and  _297
REMARK  111  A    between atoms: _300  and  _302
REMARK  112  A    between atoms: _302  and  _303
REMARK  113  A    between atoms: _302  and  _305
REMARK  114  A    between atoms: _305  and  _306
REMARK  115  A    between atoms: _309  and  _311
REMARK  116  A    between atoms: _311  and  _312
REMARK  117  A    between atoms: _315  and  _317
REMARK  118  A    between atoms: _317  and  _318
REMARK  119  A    between atoms: _317  and  _320
REMARK  120  A    between atoms: _320  and  _321
REMARK  121  A    between atoms: _323  and  _325
REMARK  122  A    between atoms: _325  and  _326
REMARK  123  A    between atoms: _325  and  _328
REMARK  124  A    between atoms: _328  and  _329
REMARK  125  A    between atoms: _332  and  _334
REMARK  126  A    between atoms: _334  and  _335
REMARK  127  A    between atoms: _334  and  _337
REMARK  128  A    between atoms: _337  and  _338
REMARK  129  A    between atoms: _341  and  _343
REMARK  130  A    between atoms: _343  and  _344
REMARK  131  A    between atoms: _343  and  _346
REMARK  132  A    between atoms: _346  and  _347
REMARK  133  A    between atoms: _351  and  _352
REMARK  134  A    between atoms: _358  and  _359
REMARK  135  A    between atoms: _364  and  _366
REMARK  136  A    between atoms: _366  and  _367
REMARK  137  A    between atoms: _366  and  _369
REMARK  138  A    between atoms: _371  and  _373
REMARK  139  A    between atoms: _373  and  _374
REMARK  140  A    between atoms: _377  and  _379
REMARK  141  A    between atoms: _379  and  _380
REMARK  142  A    between atoms: _379  and  _382
REMARK  143  A    between atoms: _385  and  _387
REMARK  144  A    between atoms: _387  and  _388
REMARK  145  A    between atoms: _387  and  _390
REMARK  146  A    between atoms: _390  and  _391
REMARK  147  A    between atoms: _401  and  _403
REMARK  148  A    between atoms: _403  and  _404
REMARK  149  A    between atoms: _403  and  _406
REMARK  150  A    between atoms: _406  and  _407
REMARK  151  A    between atoms: _412  and  _414
REMARK  152  A    between atoms: _414  and  _415
REMARK  153  A    between atoms: _414  and  _417
REMARK  154  A    between atoms: _417  and  _418
REMARK  155  A    between atoms: _418  and  _419
REMARK  156  A    between atoms: _419  and  _420
REMARK                            x       y       z     vdW  Elec       q    Type
REMARK                         _______ _______ _______ _____ _____    ______ ____
ROOT
ATOM      1  C   UNK A   4     -23.450  -3.042   5.110  0.00  0.00    +0.000 C 
ATOM      2  C   UNK A   4     -22.801  -4.404   4.928  0.00  0.00    +0.000 C 
ATOM      3  N   VAL A   5     -23.213  -5.327   5.781  0.00  0.00    +0.000 N 
ATOM      4  H   VAL A   5     -24.006  -5.105   6.417  0.00  0.00    +0.000 HD
ATOM      5  CA  VAL A   5     -22.592  -6.648   5.860  0.00  0.00    +0.000 C 
ATOM      6  C   VAL A   5     -23.592  -7.808   5.751  0.00  0.00    +0.000 C 
ATOM      7  O   VAL A   5     -24.782  -7.663   6.027  0.00  0.00    +0.000 OA
ATOM      8  N   UNK A   6     -23.077  -8.956   5.331  0.00  0.00    +0.000 N 
ATOM      9  C   UNK A   6     -23.806 -10.205   5.327  0.00  0.00    +0.000 C 
ATOM     10  C   UNK A   6     -24.138 -10.636   3.903  0.00  0.00    +0.000 C 
ATOM     11  C   UNK A   6     -24.954  -9.644   3.150  0.00  0.00    +0.000 A 
ATOM     12  N   UNK A   6     -26.330  -9.685   3.115  0.00  0.00    +0.000 NA
ATOM     13  C   UNK A   6     -26.777  -8.700   2.360  0.00  0.00    +0.000 A 
ATOM     14  N   UNK A   6     -25.740  -8.018   1.915  0.00  0.00    +0.000 N 
ATOM     15 ZN   UNK A   6     -25.732  -6.450   0.476  0.00  0.00    +0.000 Zn
ATOM     16  N   UNK A   4     -25.737  -4.651   1.648  0.00  0.00    +0.000 N 
ATOM     17  C   UNK A   4     -25.515  -4.812   2.993  0.00  0.00    +0.000 A 
ATOM     18  C   UNK A   4     -25.332  -3.581   3.514  0.00  0.00    +0.000 A 
ATOM     19  N   UNK A   4     -25.401  -2.703   2.456  0.00  0.00    +0.000 NA
ATOM     20  C   UNK A   4     -25.664  -3.369   1.348  0.00  0.00    +0.000 A 
ATOM     21  C   UNK A   6     -24.590  -8.585   2.393  0.00  0.00    +0.000 A 
ATOM     22  H   UNK A   6     -22.096  -8.958   4.986  0.00  0.00    +0.000 HD
ATOM     23  O   UNK A   4     -21.983  -4.626   3.998  0.00  0.00    +0.000 OA
ATOM     24  C   UNK A   4     -24.978  -3.136   4.889  0.00  0.00    +0.000 C 
ENDROOT
BRANCH  15  25
ATOM     25  N   UNK A   6     -23.828  -6.888  -0.418  0.00  0.00    +0.000 N 
ATOM     26  C   UNK A   6     -22.647  -6.194  -0.449  0.00  0.00    +0.000 A 
ATOM     27  C   UNK A   6     -21.716  -7.058  -0.914  0.00  0.00    +0.000 A 
ATOM     28  N   UNK A   6     -22.359  -8.238  -1.164  0.00  0.00    +0.000 NA
ATOM     29  C   UNK A   6     -23.631  -8.113  -0.845  0.00  0.00    +0.000 A 
BRANCH  26  30
ATOM     30  C   UNK A   6     -22.536  -4.777  -0.006  0.00  0.00    +0.000 C 
BRANCH  30  31
ATOM     31  C   UNK A   6     -21.103  -4.355   0.273  0.00  0.00    +0.000 C 
BRANCH  31  32
ATOM     32  N   UNK A   6     -20.607  -5.063   1.445  0.00  0.00    +0.000 N 
ATOM     33  H   UNK A   6     -21.086  -4.901   2.354  0.00  0.00    +0.000 HD
ATOM     34  C   ILE A   2     -19.574  -5.908   1.422  0.00  0.00    +0.000 C 
ATOM     35  O   ILE A   2     -19.042  -6.316   0.402  0.00  0.00    +0.000 OA
BRANCH  34  36
ATOM     36  CA  ILE A   2     -19.087  -6.372   2.781  0.00  0.00    +0.000 C 
BRANCH  36  37
ATOM     37  N   ILE A   2     -18.774  -7.792   2.714  0.00  0.00    +0.000 N 
ATOM     38  C   GLU A   1     -19.560  -8.713   3.256  0.00  0.00    +0.000 C 
ATOM     39  O   GLU A   1     -20.571  -8.444   3.920  0.00  0.00    +0.000 OA
ATOM     40  H   ILE A   2     -17.907  -8.094   2.226  0.00  0.00    +0.000 HD
BRANCH  38  41
ATOM     41  CA  GLU A   1     -19.172 -10.151   2.960  0.00  0.00    +0.000 C 
BRANCH  41  42
ATOM     42  N   GLU A   1     -19.366 -10.996   4.146  0.00  0.00    +0.000 NA
ATOM     43  H   GLU A   1     -20.140 -10.776   4.805  0.00  0.00    +0.000 HD
ENDBRANCH  41  42
BRANCH  41  44
ATOM     44  CB  GLU A   1     -20.018 -10.700   1.810  0.00  0.00    +0.000 C 
BRANCH  44  45
ATOM     45  CG  GLU A   1     -19.712 -10.137   0.429  0.00  0.00    +0.000 C 
BRANCH  45  46
ATOM     46  CD  GLU A   1     -20.423 -10.917  -0.689  0.00  0.00    +0.000 C 
ATOM     47  OE2 GLU A   1     -20.544 -12.178  -0.592  0.00  0.00    +0.000 OA
ATOM     48  OE1 GLU A   1     -20.863 -10.270  -1.674  0.00  0.00    +0.000 OA
ENDBRANCH  45  46
ENDBRANCH  44  45
ENDBRANCH  41  44
ENDBRANCH  38  41
ENDBRANCH  36  37
BRANCH  36  49
ATOM     49  CB  ILE A   2     -17.894  -5.506   3.297  0.00  0.00    +0.000 C 
ATOM     50  CG2 ILE A   2     -16.653  -5.647   2.412  0.00  0.00    +0.000 C 
BRANCH  49  51
ATOM     51  CG1 ILE A   2     -18.303  -4.038   3.343  0.00  0.00    +0.000 C 
ATOM     52  CD1 ILE A   2     -17.361  -3.145   4.130  0.00  0.00    +0.000 C 
ENDBRANCH  49  51
ENDBRANCH  36  49
ENDBRANCH  34  36
ENDBRANCH  31  32
BRANCH  31  53
ATOM     53  C   UNK A   6     -21.063  -2.852   0.439  0.00  0.00    +0.000 C 
ATOM     54  O   UNK A   6     -21.587  -2.333   1.437  0.00  0.00    +0.000 OA
ATOM     55  N   UNK A   4     -20.441  -2.152  -0.523  0.00  0.00    +0.000 N 
ATOM     56  H   UNK A   4     -19.960  -2.666  -1.289  0.00  0.00    +0.000 HD
BRANCH  55  57
ATOM     57  C   UNK A   4     -20.419  -0.664  -0.528  0.00  0.00    +0.000 C 
BRANCH  57  58
ATOM     58  C   UNK A   4     -21.214  -0.272  -1.767  0.00  0.00    +0.000 C 
ATOM     59  N   VAL A   5     -22.363   0.361  -1.531  0.00  0.00    +0.000 N 
ATOM     60  H   VAL A   5     -22.553   0.679  -0.559  0.00  0.00    +0.000 HD
ATOM     61  O   UNK A   4     -20.811  -0.583  -2.887  0.00  0.00    +0.000 OA
BRANCH  59  62
ATOM     62  CA  VAL A   5     -23.369   0.635  -2.548  0.00  0.00    +0.000 C 
BRANCH  62  63
ATOM     63  C   VAL A   5     -23.188   2.082  -3.046  0.00  0.00    +0.000 C 
ATOM     64  O   VAL A   5     -23.077   3.008  -2.253  0.00  0.00    +0.000 OA
ATOM     65  N   UNK A   6     -23.177   2.250  -4.358  0.00  0.00    +0.000 N 
ATOM     66  H   UNK A   6     -23.347   1.423  -4.965  0.00  0.00    +0.000 HD
BRANCH  65  67
ATOM     67  C   UNK A   6     -22.941   3.521  -4.984  0.00  0.00    +0.000 C 
BRANCH  67  68
ATOM     68  C   UNK A   6     -24.037   3.844  -6.008  0.00  0.00    +0.000 C 
ATOM     69  O   UNK A   6     -24.665   2.946  -6.616  0.00  0.00    +0.000 OA
ENDBRANCH  67  68
BRANCH  67  70
ATOM     70  C   UNK A   6     -21.586   3.522  -5.743  0.00  0.00    +0.000 C 
BRANCH  70  71
ATOM     71  C   UNK A   6     -20.384   3.230  -4.900  0.00  0.00    +0.000 A 
ATOM     72  N   UNK A   6     -20.101   1.978  -4.407  0.00  0.00    +0.000 NA
ATOM     73  C   UNK A   6     -18.969   2.018  -3.734  0.00  0.00    +0.000 A 
ATOM     74  N   UNK A   6     -18.488   3.244  -3.803  0.00  0.00    +0.000 NA
ATOM     75  C   UNK A   6     -19.354   4.023  -4.522  0.00  0.00    +0.000 A 
ENDBRANCH  70  71
ENDBRANCH  67  70
ENDBRANCH  65  67
ENDBRANCH  62  63
BRANCH  62  76
ATOM     76  CB  VAL A   5     -24.789   0.447  -1.967  0.00  0.00    +0.000 C 
ATOM     77  CG2 VAL A   5     -24.922  -0.909  -1.298  0.00  0.00    +0.000 C 
ATOM     78  CG1 VAL A   5     -25.854   0.576  -3.059  0.00  0.00    +0.000 C 
ENDBRANCH  62  76
ENDBRANCH  59  62
ENDBRANCH  57  58
BRANCH  57  79
ATOM     79  C   UNK A   4     -19.005  -0.060  -0.586  0.00  0.00    +0.000 C 
ATOM     80  C   UNK A   4     -18.089  -0.694   0.467  0.00  0.00    +0.000 C 
ATOM     81  C   UNK A   4     -19.065   1.446  -0.385  0.00  0.00    +0.000 C 
ENDBRANCH  57  79
ENDBRANCH  55  57
ENDBRANCH  31  53
ENDBRANCH  30  31
ENDBRANCH  26  30
ENDBRANCH  15  25
BRANCH   1  84
ATOM     82  C   UNK A   3     -22.876  -0.811   4.372  0.00  0.00    +0.000 C 
ATOM     83  O   UNK A   3     -23.412  -0.282   5.353  0.00  0.00    +0.000 OA
ATOM     84  N   UNK A   4     -22.878  -2.113   4.156  0.00  0.00    +0.000 N 
ATOM     85  H   UNK A   4     -22.458  -2.482   3.279  0.00  0.00    +0.000 HD
BRANCH  82  86
ATOM     86  C   UNK A   3     -22.205   0.031   3.294  0.00  0.00    +0.000 C 
BRANCH  86  88
ATOM     87  C   ILE A   2     -23.109   1.984   2.181  0.00  0.00    +0.000 C 
ATOM     88  N   UNK A   3     -22.756   1.374   3.307  0.00  0.00    +0.000 N 
ATOM     89  H   UNK A   3     -22.877   1.868   4.214  0.00  0.00    +0.000 HD
ATOM     90  O   ILE A   2     -22.803   1.573   1.039  0.00  0.00    +0.000 OA
BRANCH  87  91
ATOM     91  CA  ILE A   2     -23.892   3.257   2.359  0.00  0.00    +0.000 C 
BRANCH  91  94
ATOM     92  C   GLU A   1     -24.214   5.282   1.048  0.00  0.00    +0.000 C 
ATOM     93  O   GLU A   1     -24.540   5.924   2.024  0.00  0.00    +0.000 OA
ATOM     94  N   ILE A   2     -23.809   4.025   1.124  0.00  0.00    +0.000 N 
ATOM     95  H   ILE A   2     -23.419   3.570   0.274  0.00  0.00    +0.000 HD
BRANCH  92  96
ATOM     96  CA  GLU A   1     -24.309   5.882  -0.338  0.00  0.00    +0.000 C 
BRANCH  96  97
ATOM     97  N   GLU A   1     -23.103   5.629  -1.137  0.00  0.00    +0.000 NA
ATOM     98  H   GLU A   1     -22.976   4.677  -1.535  0.00  0.00    +0.000 HD
ENDBRANCH  96  97
BRANCH  96  99
ATOM     99  CB  GLU A   1     -25.538   5.248  -1.009  0.00  0.00    +0.000 C 
BRANCH  99 100
ATOM    100  CG  GLU A   1     -25.845   5.750  -2.405  0.00  0.00    +0.000 C 
ATOM    101  CD2 GLU A   1     -26.155   7.235  -2.391  0.00  0.00    +0.000 C 
ATOM    102  CD1 GLU A   1     -26.980   4.933  -2.976  0.00  0.00    +0.000 C 
ENDBRANCH  99 100
ENDBRANCH  96  99
ENDBRANCH  92  96
ENDBRANCH  91  94
BRANCH  91 103
ATOM    103  CB  ILE A   2     -25.345   2.910   2.703  0.00  0.00    +0.000 C 
BRANCH 103 104
ATOM    104  CG  ILE A   2     -26.151   2.180   1.609  0.00  0.00    +0.000 C 
BRANCH 104 105
ATOM    105  CD  ILE A   2     -26.328   0.670   1.821  0.00  0.00    +0.000 C 
ATOM    106  OE1 ILE A   2     -25.548   0.020   2.502  0.00  0.00    +0.000 OA
ATOM    107  NE2 ILE A   2     -27.361   0.110   1.215  0.00  0.00    +0.000 N 
ATOM    108 HE21 ILE A   2     -27.529  -0.912   1.311  0.00  0.00    +0.000 HD
ATOM    109 HE22 ILE A   2     -28.006   0.691   0.643  0.00  0.00    +0.000 HD
ENDBRANCH 104 105
ENDBRANCH 103 104
ENDBRANCH  91 103
ENDBRANCH  87  91
ENDBRANCH  86  88
BRANCH  86 110
ATOM    110  C   UNK A   3     -20.663   0.038   3.459  0.00  0.00    +0.000 C 
BRANCH 110 111
ATOM    111  C   UNK A   3     -20.091   0.591   4.781  0.00  0.00    +0.000 C 
ATOM    112  C   UNK A   3     -20.051  -0.476   5.880  0.00  0.00    +0.000 C 
ATOM    113  C   UNK A   3     -18.703   1.176   4.533  0.00  0.00    +0.000 C 
ENDBRANCH 110 111
ENDBRANCH  86 110
ENDBRANCH  82  86
ENDBRANCH   1  84
BRANCH   9 114
ATOM    114  C   UNK A   6     -22.908 -11.241   5.978  0.00  0.00    +0.000 C 
ATOM    115  O   UNK A   6     -21.700 -11.284   5.700  0.00  0.00    +0.000 OA
ENDBRANCH   9 114
BRANCH   5 116
ATOM    116  CB  VAL A   5     -21.824  -6.740   7.184  0.00  0.00    +0.000 C 
BRANCH 116 117
ATOM    117  CG  VAL A   5     -20.798  -5.625   7.455  0.00  0.00    +0.000 C 
ATOM    118  CD2 VAL A   5     -20.211  -5.727   8.848  0.00  0.00    +0.000 C 
ATOM    119  CD1 VAL A   5     -19.680  -5.708   6.432  0.00  0.00    +0.000 C 
ENDBRANCH 116 117
ENDBRANCH   5 116
TORSDOF 41
REMARK  Name = ../refined-set-2016/5fl5/5fl5_pocket.pdb
REMARK  156 active torsions:
REMARK  status: ('A' for Active; 'I' for Inactive)
REMARK    1  A    between atoms: _1  and  _5
REMARK    2  A    between atoms: _5  and  _6
REMARK    3  A    between atoms: _5  and  _8
REMARK    4  A    between atoms: _8  and  _9
REMARK    5  A    between atoms: _19  and  _21
REMARK    6  A    between atoms: _21  and  _22
REMARK    7  A    between atoms: _21  and  _24
REMARK    8  A    between atoms: _24  and  _25
REMARK    9  A    between atoms: _30  and  _31
REMARK   10  A    between atoms: _33  and  _35
REMARK   11  A    between atoms: _35  and  _36
REMARK   12  A    between atoms: _35  and  _38
REMARK   13  A    between atoms: _38  and  _39
REMARK   14  A    between atoms: _42  and  _43
REMARK   15  A    between atoms: _48  and  _50
REMARK   16  A    between atoms: _50  and  _51
REMARK   17  A    between atoms: _50  and  _53
REMARK   18  A    between atoms: _53  and  _54
REMARK   19  A    between atoms: _59  and  _61
REMARK   20  A    between atoms: _61  and  _62
REMARK   21  A    between atoms: _61  and  _64
REMARK   22  A    between atoms: _64  and  _65
REMARK   23  A    between atoms: _67  and  _69
REMARK   24  A    between atoms: _69  and  _70
REMARK   25  A    between atoms: _69  and  _72
REMARK   26  A    between atoms: _72  and  _73
REMARK   27  A    between atoms: _73  and  _74
REMARK   28  A    between atoms: _79  and  _81
REMARK   29  A    between atoms: _81  and  _82
REMARK   30  A    between atoms: _81  and  _84
REMARK   31  A    between atoms: _84  and  _85
REMARK   32  A    between atoms: _88  and  _90
REMARK   33  A    between atoms: _90  and  _91
REMARK   34  A    between atoms: _90  and  _93
REMARK   35  A    between atoms: _93  and  _94
REMARK   36  A    between atoms: _94  and  _95
REMARK   37  A    between atoms: _100  and  _102
REMARK   38  A    between atoms: _102  and  _103
REMARK   39  A    between atoms: _102  and  _105
REMARK   40  A    between atoms: _105  and  _106
REMARK   41  A    between atoms: _109  and  _111
REMARK   42  A    between atoms: _122  and  _125
REMARK   43  A    between atoms: _125  and  _126
REMARK   44  A    between atoms: _131  and  _132
REMARK   45  A    between atoms: _140  and  _142
REMARK   46  A    between atoms: _142  and  _143
REMARK   47  A    between atoms: _142  and  _145
REMARK   48  A    between atoms: _145  and  _146
REMARK   49  A    between atoms: _146  and  _147
REMARK   50  A    between atoms: _150  and  _152
REMARK   51  A    between atoms: _152  and  _153
REMARK   52  A    between atoms: _152  and  _155
REMARK   53  A    between atoms: _155  and  _156
REMARK   54  A    between atoms: _161  and  _163
REMARK   55  A    between atoms: _163  and  _164
REMARK   56  A    between atoms: _163  and  _166
REMARK   57  A    between atoms: _166  and  _167
REMARK   58  A    between atoms: _167  and  _168
REMARK   59  A    between atoms: _171  and  _173
REMARK   60  A    between atoms: _173  and  _174
REMARK   61  A    between atoms: _173  and  _176
REMARK   62  A    between atoms: _176  and  _177
REMARK   63  A    between atoms: _180  and  _182
REMARK   64  A    between atoms: _182  and  _183
REMARK   65  A    between atoms: _182  and  _185
REMARK   66  A    between atoms: _185  and  _186
REMARK   67  A    between atoms: _187  and  ZN_429
REMARK   68  A    between atoms: _191  and  _193
REMARK   69  A    between atoms: _193  and  _194
REMARK   70  A    between atoms: _193  and  _196
REMARK   71  A    between atoms: _199  and  _201
REMARK   72  A    between atoms: _201  and  _202
REMARK   73  A    between atoms: _201  and  _204
REMARK   74  A    between atoms: _207  and  _209
REMARK   75  A    between atoms: _209  and  _210
REMARK   76  A    between atoms: _209  and  _212
REMARK   77  A    between atoms: _212  and  _213
REMARK   78  A    between atoms: _218  and  _220
REMARK   79  A    between atoms: _220  and  _221
REMARK   80  A    between atoms: _220  and  _223
REMARK   81  A    between atoms: _223  and  _224
REMARK   82  A    between atoms: _224  and  _225
REMARK   83  A    between atoms: _225  and  _226
REMARK   84  A    between atoms: _235  and  _237
REMARK   85  A    between atoms: _237  and  _238
REMARK   86  A    between atoms: _237  and  _240
REMARK   87  A    between atoms: _243  and  _245
REMARK   88  A    between atoms: _245  and  _246
REMARK   89  A    between atoms: _245  and  _248
REMARK   90  A    between atoms: _248  and  _249
REMARK   91  A    between atoms: _252  and  _254
REMARK   92  A    between atoms: _254  and  _255
REMARK   93  A    between atoms: _254  and  _257
REMARK   94  A    between atoms: _257  and  _258
REMARK   95  A    between atoms: _258  and  _259
REMARK   96  A    between atoms: _262  and  _264
REMARK   97  A    between atoms: _264  and  _265
REMARK   98  A    between atoms: _268  and  _270
REMARK   99  A    between atoms: _270  and  _271
REMARK  100  A    between atoms: _270  and  _273
REMARK  101  A    between atoms: _273  and  _274
REMARK  102  A    between atoms: _277  and  _279
REMARK  103  A    between atoms: _279  and  _280
REMARK  104  A    between atoms: _279  and  _282
REMARK  105  A    between atoms: _282  and  _283
REMARK  106  A    between atoms: _286  and  _288
REMARK  107  A    between atoms: _288  and  _289
REMARK  108  A    between atoms: _292  and  _294
REMARK  109  A    between atoms: _294  and  _295
REMARK  110  A    between atoms: _294  and  _297
REMARK  111  A    between atoms: _300  and  _302
REMARK  112  A    between atoms: _302  and  _303
REMARK  113  A    between atoms: _302  and  _305
REMARK  114  A    between atoms: _305  and  _306
REMARK  115  A    between atoms: _309  and  _311
REMARK  116  A    between atoms: _311  and  _312
REMARK  117  A    between atoms: _315  and  _317
REMARK  118  A    between atoms: _317  and  _318
REMARK  119  A    between atoms: _317  and  _320
REMARK  120  A    between atoms: _320  and  _321
REMARK  121  A    between atoms: _323  and  _325
REMARK  122  A    between atoms: _325  and  _326
REMARK  123  A    between atoms: _325  and  _328
REMARK  124  A    between atoms: _328  and  _329
REMARK  125  A    between atoms: _332  and  _334
REMARK  126  A    between atoms: _334  and  _335
REMARK  127  A    between atoms: _334  and  _337
REMARK  128  A    between atoms: _337  and  _338
REMARK  129  A    between atoms: _341  and  _343
REMARK  130  A    between atoms: _343  and  _344
REMARK  131  A    between atoms: _343  and  _346
REMARK  132  A    between atoms: _346  and  _347
REMARK  133  A    between atoms: _351  and  _352
REMARK  134  A    between atoms: _358  and  _359
REMARK  135  A    between atoms: _364  and  _366
REMARK  136  A    between atoms: _366  and  _367
REMARK  137  A    between atoms: _366  and  _369
REMARK  138  A    between atoms: _371  and  _373
REMARK  139  A    between atoms: _373  and  _374
REMARK  140  A    between atoms: _377  and  _379
REMARK  141  A    between atoms: _379  and  _380
REMARK  142  A    between atoms: _379  and  _382
REMARK  143  A    between atoms: _385  and  _387
REMARK  144  A    between atoms: _387  and  _388
REMARK  145  A    between atoms: _387  and  _390
REMARK  146  A    between atoms: _390  and  _391
REMARK  147  A    between atoms: _401  and  _403
REMARK  148  A    between atoms: _403  and  _404
REMARK  149  A    between atoms: _403  and  _406
REMARK  150  A    between atoms: _406  and  _407
REMARK  151  A    between atoms: _412  and  _414
REMARK  152  A    between atoms: _414  and  _415
REMARK  153  A    between atoms: _414  and  _417
REMARK  154  A    between atoms: _417  and  _418
REMARK  155  A    between atoms: _418  and  _419
REMARK  156  A    between atoms: _419  and  _420
REMARK                            x       y       z     vdW  Elec       q    Type
REMARK                         _______ _______ _______ _____ _____    ______ ____
ROOT
ATOM      1  C   GLU A   1     -23.037 -14.476  -1.756  0.00  0.00    +0.238 C 
ATOM      2  N   HIS A   2     -21.951 -13.898  -2.271  0.00  0.00    -0.298 N 
ATOM      3  H   HIS A   2     -21.613 -12.997  -1.877  0.00  0.00    +0.150 HD
ATOM      4  O   GLU A   1     -23.607 -15.457  -2.277  0.00  0.00    -0.274 OA
ENDROOT
BRANCH   1   5
ATOM      5  CA  GLU A   1     -23.595 -13.837  -0.511  0.00  0.00    +0.145 C 
BRANCH   5   6
ATOM      6  N   GLU A   1     -22.545 -13.749   0.497  0.00  0.00    -0.238 NA
ATOM      7  H   GLU A   1     -21.992 -12.872   0.572  0.00  0.00    +0.142 HD
ENDBRANCH   5   6
BRANCH   5   8
ATOM      8  CB  GLU A   1     -24.131 -12.455  -0.831  0.00  0.00    +0.038 C 
BRANCH   8   9
ATOM      9  CG  GLU A   1     -24.833 -11.804   0.363  0.00  0.00    +0.116 C 
BRANCH   9  10
ATOM     10  CD  GLU A   1     -26.142 -11.161  -0.042  0.00  0.00    +0.365 C 
ATOM     11  OE2 GLU A   1     -27.169 -11.835   0.128  0.00  0.00    -0.246 OA
ATOM     12  OE1 GLU A   1     -26.151 -10.040  -0.595  0.00  0.00    -0.246 OA
ENDBRANCH   9  10
ENDBRANCH   8   9
ENDBRANCH   5   8
ENDBRANCH   1   5
BRANCH   2  13
ATOM     13  CA  HIS A   2     -21.230 -14.516  -3.383  0.00  0.00    +0.143 C 
BRANCH  13  14
ATOM     14  C   HIS A   2     -20.475 -15.737  -2.887  0.00  0.00    +0.227 C 
ATOM     15  O   HIS A   2     -20.145 -15.844  -1.710  0.00  0.00    -0.286 OA
ENDBRANCH  13  14
BRANCH  13  16
ATOM     16  CB  HIS A   2     -20.303 -13.526  -4.092  0.00  0.00    +0.075 C 
BRANCH  16  17
ATOM     17  CG  HIS A   2     -21.047 -12.501  -4.872  0.00  0.00    +0.082 A 
ATOM     18  ND1 HIS A   2     -21.497 -11.326  -4.310  0.00  0.00    -0.227 NA
ATOM     19  CE1 HIS A   2     -22.156 -10.641  -5.225  0.00  0.00    +0.199 A 
ATOM     20  NE2 HIS A   2     -22.182 -11.345  -6.341  0.00  0.00    -0.221 NA
ATOM     21  CD2 HIS A   2     -21.498 -12.511  -6.146  0.00  0.00    +0.115 A 
ENDBRANCH  16  17
ENDBRANCH  13  16
ENDBRANCH   2  13
TORSDOF 9
REMARK  Name = ../refined-set-2016/5fl5/5fl5_pocket.pdb
REMARK  156 active torsions:
REMARK  status: ('A' for Active; 'I' for Inactive)
REMARK    1  A    between atoms: _1  and  _5
REMARK    2  A    between atoms: _5  and  _6
REMARK    3  A    between atoms: _5  and  _8
REMARK    4  A    between atoms: _8  and  _9
REMARK    5  A    between atoms: _19  and  _21
REMARK    6  A    between atoms: _21  and  _22
REMARK    7  A    between atoms: _21  and  _24
REMARK    8  A    between atoms: _24  and  _25
REMARK    9  A    between atoms: _30  and  _31
REMARK   10  A    between atoms: _33  and  _35
REMARK   11  A    between atoms: _35  and  _36
REMARK   12  A    between atoms: _35  and  _38
REMARK   13  A    between atoms: _38  and  _39
REMARK   14  A    between atoms: _42  and  _43
REMARK   15  A    between atoms: _48  and  _50
REMARK   16  A    between atoms: _50  and  _51
REMARK   17  A    between atoms: _50  and  _53
REMARK   18  A    between atoms: _53  and  _54
REMARK   19  A    between atoms: _59  and  _61
REMARK   20  A    between atoms: _61  and  _62
REMARK   21  A    between atoms: _61  and  _64
REMARK   22  A    between atoms: _64  and  _65
REMARK   23  A    between atoms: _67  and  _69
REMARK   24  A    between atoms: _69  and  _70
REMARK   25  A    between atoms: _69  and  _72
REMARK   26  A    between atoms: _72  and  _73
REMARK   27  A    between atoms: _73  and  _74
REMARK   28  A    between atoms: _79  and  _81
REMARK   29  A    between atoms: _81  and  _82
REMARK   30  A    between atoms: _81  and  _84
REMARK   31  A    between atoms: _84  and  _85
REMARK   32  A    between atoms: _88  and  _90
REMARK   33  A    between atoms: _90  and  _91
REMARK   34  A    between atoms: _90  and  _93
REMARK   35  A    between atoms: _93  and  _94
REMARK   36  A    between atoms: _94  and  _95
REMARK   37  A    between atoms: _100  and  _102
REMARK   38  A    between atoms: _102  and  _103
REMARK   39  A    between atoms: _102  and  _105
REMARK   40  A    between atoms: _105  and  _106
REMARK   41  A    between atoms: _109  and  _111
REMARK   42  A    between atoms: _122  and  _125
REMARK   43  A    between atoms: _125  and  _126
REMARK   44  A    between atoms: _131  and  _132
REMARK   45  A    between atoms: _140  and  _142
REMARK   46  A    between atoms: _142  and  _143
REMARK   47  A    between atoms: _142  and  _145
REMARK   48  A    between atoms: _145  and  _146
REMARK   49  A    between atoms: _146  and  _147
REMARK   50  A    between atoms: _150  and  _152
REMARK   51  A    between atoms: _152  and  _153
REMARK   52  A    between atoms: _152  and  _155
REMARK   53  A    between atoms: _155  and  _156
REMARK   54  A    between atoms: _161  and  _163
REMARK   55  A    between atoms: _163  and  _164
REMARK   56  A    between atoms: _163  and  _166
REMARK   57  A    between atoms: _166  and  _167
REMARK   58  A    between atoms: _167  and  _168
REMARK   59  A    between atoms: _171  and  _173
REMARK   60  A    between atoms: _173  and  _174
REMARK   61  A    between atoms: _173  and  _176
REMARK   62  A    between atoms: _176  and  _177
REMARK   63  A    between atoms: _180  and  _182
REMARK   64  A    between atoms: _182  and  _183
REMARK   65  A    between atoms: _182  and  _185
REMARK   66  A    between atoms: _185  and  _186
REMARK   67  A    between atoms: _187  and  ZN_429
REMARK   68  A    between atoms: _191  and  _193
REMARK   69  A    between atoms: _193  and  _194
REMARK   70  A    between atoms: _193  and  _196
REMARK   71  A    between atoms: _199  and  _201
REMARK   72  A    between atoms: _201  and  _202
REMARK   73  A    between atoms: _201  and  _204
REMARK   74  A    between atoms: _207  and  _209
REMARK   75  A    between atoms: _209  and  _210
REMARK   76  A    between atoms: _209  and  _212
REMARK   77  A    between atoms: _212  and  _213
REMARK   78  A    between atoms: _218  and  _220
REMARK   79  A    between atoms: _220  and  _221
REMARK   80  A    between atoms: _220  and  _223
REMARK   81  A    between atoms: _223  and  _224
REMARK   82  A    between atoms: _224  and  _225
REMARK   83  A    between atoms: _225  and  _226
REMARK   84  A    between atoms: _235  and  _237
REMARK   85  A    between atoms: _237  and  _238
REMARK   86  A    between atoms: _237  and  _240
REMARK   87  A    between atoms: _243  and  _245
REMARK   88  A    between atoms: _245  and  _246
REMARK   89  A    between atoms: _245  and  _248
REMARK   90  A    between atoms: _248  and  _249
REMARK   91  A    between atoms: _252  and  _254
REMARK   92  A    between atoms: _254  and  _255
REMARK   93  A    between atoms: _254  and  _257
REMARK   94  A    between atoms: _257  and  _258
REMARK   95  A    between atoms: _258  and  _259
REMARK   96  A    between atoms: _262  and  _264
REMARK   97  A    between atoms: _264  and  _265
REMARK   98  A    between atoms: _268  and  _270
REMARK   99  A    between atoms: _270  and  _271
REMARK  100  A    between atoms: _270  and  _273
REMARK  101  A    between atoms: _273  and  _274
REMARK  102  A    between atoms: _277  and  _279
REMARK  103  A    between atoms: _279  and  _280
REMARK  104  A    between atoms: _279  and  _282
REMARK  105  A    between atoms: _282  and  _283
REMARK  106  A    between atoms: _286  and  _288
REMARK  107  A    between atoms: _288  and  _289
REMARK  108  A    between atoms: _292  and  _294
REMARK  109  A    between atoms: _294  and  _295
REMARK  110  A    between atoms: _294  and  _297
REMARK  111  A    between atoms: _300  and  _302
REMARK  112  A    between atoms: _302  and  _303
REMARK  113  A    between atoms: _302  and  _305
REMARK  114  A    between atoms: _305  and  _306
REMARK  115  A    between atoms: _309  and  _311
REMARK  116  A    between atoms: _311  and  _312
REMARK  117  A    between atoms: _315  and  _317
REMARK  118  A    between atoms: _317  and  _318
REMARK  119  A    between atoms: _317  and  _320
REMARK  120  A    between atoms: _320  and  _321
REMARK  121  A    between atoms: _323  and  _325
REMARK  122  A    between atoms: _325  and  _326
REMARK  123  A    between atoms: _325  and  _328
REMARK  124  A    between atoms: _328  and  _329
REMARK  125  A    between atoms: _332  and  _334
REMARK  126  A    between atoms: _334  and  _335
REMARK  127  A    between atoms: _334  and  _337
REMARK  128  A    between atoms: _337  and  _338
REMARK  129  A    between atoms: _341  and  _343
REMARK  130  A    between atoms: _343  and  _344
REMARK  131  A    between atoms: _343  and  _346
REMARK  132  A    between atoms: _346  and  _347
REMARK  133  A    between atoms: _351  and  _352
REMARK  134  A    between atoms: _358  and  _359
REMARK  135  A    between atoms: _364  and  _366
REMARK  136  A    between atoms: _366  and  _367
REMARK  137  A    between atoms: _366  and  _369
REMARK  138  A    between atoms: _371  and  _373
REMARK  139  A    between atoms: _373  and  _374
REMARK  140  A    between atoms: _377  and  _379
REMARK  141  A    between atoms: _379  and  _380
REMARK  142  A    between atoms: _379  and  _382
REMARK  143  A    between atoms: _385  and  _387
REMARK  144  A    between atoms: _387  and  _388
REMARK  145  A    between atoms: _387  and  _390
REMARK  146  A    between atoms: _390  and  _391
REMARK  147  A    between atoms: _401  and  _403
REMARK  148  A    between atoms: _403  and  _404
REMARK  149  A    between atoms: _403  and  _406
REMARK  150  A    between atoms: _406  and  _407
REMARK  151  A    between atoms: _412  and  _414
REMARK  152  A    between atoms: _414  and  _415
REMARK  153  A    between atoms: _414  and  _417
REMARK  154  A    between atoms: _417  and  _418
REMARK  155  A    between atoms: _418  and  _419
REMARK  156  A    between atoms: _419  and  _420
REMARK                            x       y       z     vdW  Elec       q    Type
REMARK                         _______ _______ _______ _____ _____    ______ ____
ROOT
ATOM      1  CA  ASP A   3     -35.132   5.524  -6.752  0.00  0.00    +0.160 C 
ENDROOT
BRANCH   1   3
ATOM      2  C   VAL A   2     -32.733   5.512  -6.458  0.00  0.00    +0.241 C 
ATOM      3  N   ASP A   3     -33.917   6.005  -6.099  0.00  0.00    -0.297 N 
ATOM      4  H   ASP A   3     -33.976   6.730  -5.356  0.00  0.00    +0.150 HD
ATOM      5  O   VAL A   2     -32.593   4.709  -7.388  0.00  0.00    -0.273 OA
BRANCH   2   6
ATOM      6  CA  VAL A   2     -31.520   5.979  -5.672  0.00  0.00    +0.148 C 
BRANCH   6   8
ATOM      7  C   ARG A   1     -31.589   8.269  -6.490  0.00  0.00    +0.238 C 
ATOM      8  N   VAL A   2     -31.520   7.421  -5.472  0.00  0.00    -0.297 N 
ATOM      9  H   VAL A   2     -31.464   7.797  -4.504  0.00  0.00    +0.150 HD
ATOM     10  O   ARG A   1     -31.688   7.916  -7.646  0.00  0.00    -0.274 OA
BRANCH   7  11
ATOM     11  CA  ARG A   1     -31.606   9.745  -6.140  0.00  0.00    +0.145 C 
BRANCH  11  12
ATOM     12  N   ARG A   1     -31.058  10.564  -7.217  0.00  0.00    -0.238 NA
ATOM     13  H   ARG A   1     -31.338  10.364  -8.199  0.00  0.00    +0.142 HD
ENDBRANCH  11  12
BRANCH  11  14
ATOM     14  CB  ARG A   1     -33.050  10.143  -5.867  0.00  0.00    +0.030 C 
BRANCH  14  15
ATOM     15  CG  ARG A   1     -33.249  11.616  -5.541  0.00  0.00    +0.045 C 
BRANCH  15  16
ATOM     16  CD  ARG A   1     -34.411  11.827  -4.580  0.00  0.00    +0.174 C 
BRANCH  16  17
ATOM     17  NE  ARG A   1     -35.623  11.121  -4.998  0.00  0.00    -0.265 N 
ATOM     18  HE  ARG A   1     -35.871  10.253  -4.483  0.00  0.00    +0.259 HD
ATOM     19  CZ  ARG A   1     -36.433  11.499  -5.983  0.00  0.00    +0.342 C 
ATOM     20  NH2 ARG A   1     -37.512  10.768  -6.254  0.00  0.00    -0.292 N 
ATOM     21 HH21 ARG A   1     -37.713   9.912  -5.698  0.00  0.00    +0.255 HD
ATOM     22 HH22 ARG A   1     -38.153  11.052  -7.022  0.00  0.00    +0.255 HD
ATOM     23  NH1 ARG A   1     -36.189  12.596  -6.701  0.00  0.00    -0.292 N 
ATOM     24 HH11 ARG A   1     -35.351  13.176  -6.496  0.00  0.00    +0.255 HD
ATOM     25 HH12 ARG A   1     -36.837  12.871  -7.466  0.00  0.00    +0.255 HD
ENDBRANCH  16  17
ENDBRANCH  15  16
ENDBRANCH  14  15
ENDBRANCH  11  14
ENDBRANCH   7  11
ENDBRANCH   6   8
BRANCH   6  26
ATOM     26  CB  VAL A   2     -31.446   5.217  -4.335  0.00  0.00    +0.027 C 
ATOM     27  CG2 VAL A   2     -30.078   5.382  -3.744  0.00  0.00    +0.002 C 
ATOM     28  CG1 VAL A   2     -31.731   3.723  -4.523  0.00  0.00    +0.002 C 
ENDBRANCH   6  26
ENDBRANCH   2   6
ENDBRANCH   1   3
BRANCH   1  29
ATOM     29  C   ASP A   3     -35.167   5.796  -8.261  0.00  0.00    +0.241 C 
ATOM     30  N   GLU A   4     -34.522   6.864  -8.726  0.00  0.00    -0.297 N 
ATOM     31  H   GLU A   4     -34.100   7.535  -8.053  0.00  0.00    +0.150 HD
ATOM     32  O   ASP A   3     -35.714   5.011  -8.994  0.00  0.00    -0.273 OA
BRANCH  30  33
ATOM     33  CA  GLU A   4     -34.393   7.116 -10.166  0.00  0.00    +0.149 C 
BRANCH  33  34
ATOM     34  C   GLU A   4     -33.453   6.099 -10.850  0.00  0.00    +0.241 C 
ATOM     35  N   ALA A   5     -32.468   5.605 -10.117  0.00  0.00    -0.297 N 
ATOM     36  H   ALA A   5     -32.401   5.884  -9.117  0.00  0.00    +0.150 HD
ATOM     37  O   GLU A   4     -33.611   5.778 -12.017  0.00  0.00    -0.273 OA
BRANCH  35  38
ATOM     38  CA  ALA A   5     -31.475   4.687 -10.655  0.00  0.00    +0.149 C 
ATOM     39  CB  ALA A   5     -30.190   4.833  -9.872  0.00  0.00    +0.031 C 
BRANCH  38  40
ATOM     40  C   ALA A   5     -31.900   3.222 -10.676  0.00  0.00    +0.241 C 
ATOM     41  N   LEU A   6     -32.894   2.848  -9.867  0.00  0.00    -0.298 N 
ATOM     42  H   LEU A   6     -33.386   3.575  -9.309  0.00  0.00    +0.150 HD
ATOM     43  O   ALA A   5     -31.317   2.436 -11.421  0.00  0.00    -0.273 OA
BRANCH  41  44
ATOM     44  CA  LEU A   6     -33.320   1.446  -9.735  0.00  0.00    +0.137 C 
BRANCH  44  45
ATOM     45  C   LEU A   6     -33.761   0.939 -11.057  0.00  0.00    +0.227 C 
ATOM     46  O   LEU A   6     -34.522   1.614 -11.754  0.00  0.00    -0.286 OA
ENDBRANCH  44  45
BRANCH  44  47
ATOM     47  CB  LEU A   6     -34.487   1.287  -8.751  0.00  0.00    +0.028 C 
BRANCH  47  48
ATOM     48  CG  LEU A   6     -34.179   1.538  -7.278  0.00  0.00    +0.002 C 
ATOM     49  CD2 LEU A   6     -35.479   1.677  -6.481  0.00  0.00    +0.000 C 
ATOM     50  CD1 LEU A   6     -33.278   0.450  -6.698  0.00  0.00    +0.000 C 
ENDBRANCH  47  48
ENDBRANCH  44  47
ENDBRANCH  41  44
ENDBRANCH  38  40
ENDBRANCH  35  38
ENDBRANCH  33  34
BRANCH  33  51
ATOM     51  CB  GLU A   4     -33.875   8.539 -10.416  0.00  0.00    +0.041 C 
BRANCH  51  52
ATOM     52  CG  GLU A   4     -34.759   9.629  -9.823  0.00  0.00    +0.116 C 
BRANCH  52  53
ATOM     53  CD  GLU A   4     -34.097  11.001  -9.697  0.00  0.00    +0.365 C 
ATOM     54  OE2 GLU A   4     -34.825  11.895  -9.214  0.00  0.00    -0.246 OA
ATOM     55  OE1 GLU A   4     -32.908  11.217 -10.077  0.00  0.00    -0.246 OA
ENDBRANCH  52  53
ENDBRANCH  51  52
ENDBRANCH  33  51
ENDBRANCH  30  33
ENDBRANCH   1  29
BRANCH   1  56
ATOM     56  CB  ASP A   3     -36.396   6.008  -6.025  0.00  0.00    +0.143 C 
BRANCH  56  57
ATOM     57  CG  ASP A   3     -36.735   7.446  -6.316  0.00  0.00    +0.367 C 
ATOM     58  OD2 ASP A   3     -35.850   8.318  -6.180  0.00  0.00    -0.246 OA
ATOM     59  OD1 ASP A   3     -37.902   7.703  -6.685  0.00  0.00    -0.246 OA
ENDBRANCH  56  57
ENDBRANCH   1  56
TORSDOF 24
REMARK  Name = ../refined-set-2016/5fl5/5fl5_pocket.pdb
REMARK  156 active torsions:
REMARK  status: ('A' for Active; 'I' for Inactive)
REMARK    1  A    between atoms: _1  and  _5
REMARK    2  A    between atoms: _5  and  _6
REMARK    3  A    between atoms: _5  and  _8
REMARK    4  A    between atoms: _8  and  _9
REMARK    5  A    between atoms: _19  and  _21
REMARK    6  A    between atoms: _21  and  _22
REMARK    7  A    between atoms: _21  and  _24
REMARK    8  A    between atoms: _24  and  _25
REMARK    9  A    between atoms: _30  and  _31
REMARK   10  A    between atoms: _33  and  _35
REMARK   11  A    between atoms: _35  and  _36
REMARK   12  A    between atoms: _35  and  _38
REMARK   13  A    between atoms: _38  and  _39
REMARK   14  A    between atoms: _42  and  _43
REMARK   15  A    between atoms: _48  and  _50
REMARK   16  A    between atoms: _50  and  _51
REMARK   17  A    between atoms: _50  and  _53
REMARK   18  A    between atoms: _53  and  _54
REMARK   19  A    between atoms: _59  and  _61
REMARK   20  A    between atoms: _61  and  _62
REMARK   21  A    between atoms: _61  and  _64
REMARK   22  A    between atoms: _64  and  _65
REMARK   23  A    between atoms: _67  and  _69
REMARK   24  A    between atoms: _69  and  _70
REMARK   25  A    between atoms: _69  and  _72
REMARK   26  A    between atoms: _72  and  _73
REMARK   27  A    between atoms: _73  and  _74
REMARK   28  A    between atoms: _79  and  _81
REMARK   29  A    between atoms: _81  and  _82
REMARK   30  A    between atoms: _81  and  _84
REMARK   31  A    between atoms: _84  and  _85
REMARK   32  A    between atoms: _88  and  _90
REMARK   33  A    between atoms: _90  and  _91
REMARK   34  A    between atoms: _90  and  _93
REMARK   35  A    between atoms: _93  and  _94
REMARK   36  A    between atoms: _94  and  _95
REMARK   37  A    between atoms: _100  and  _102
REMARK   38  A    between atoms: _102  and  _103
REMARK   39  A    between atoms: _102  and  _105
REMARK   40  A    between atoms: _105  and  _106
REMARK   41  A    between atoms: _109  and  _111
REMARK   42  A    between atoms: _122  and  _125
REMARK   43  A    between atoms: _125  and  _126
REMARK   44  A    between atoms: _131  and  _132
REMARK   45  A    between atoms: _140  and  _142
REMARK   46  A    between atoms: _142  and  _143
REMARK   47  A    between atoms: _142  and  _145
REMARK   48  A    between atoms: _145  and  _146
REMARK   49  A    between atoms: _146  and  _147
REMARK   50  A    between atoms: _150  and  _152
REMARK   51  A    between atoms: _152  and  _153
REMARK   52  A    between atoms: _152  and  _155
REMARK   53  A    between atoms: _155  and  _156
REMARK   54  A    between atoms: _161  and  _163
REMARK   55  A    between atoms: _163  and  _164
REMARK   56  A    between atoms: _163  and  _166
REMARK   57  A    between atoms: _166  and  _167
REMARK   58  A    between atoms: _167  and  _168
REMARK   59  A    between atoms: _171  and  _173
REMARK   60  A    between atoms: _173  and  _174
REMARK   61  A    between atoms: _173  and  _176
REMARK   62  A    between atoms: _176  and  _177
REMARK   63  A    between atoms: _180  and  _182
REMARK   64  A    between atoms: _182  and  _183
REMARK   65  A    between atoms: _182  and  _185
REMARK   66  A    between atoms: _185  and  _186
REMARK   67  A    between atoms: _187  and  ZN_429
REMARK   68  A    between atoms: _191  and  _193
REMARK   69  A    between atoms: _193  and  _194
REMARK   70  A    between atoms: _193  and  _196
REMARK   71  A    between atoms: _199  and  _201
REMARK   72  A    between atoms: _201  and  _202
REMARK   73  A    between atoms: _201  and  _204
REMARK   74  A    between atoms: _207  and  _209
REMARK   75  A    between atoms: _209  and  _210
REMARK   76  A    between atoms: _209  and  _212
REMARK   77  A    between atoms: _212  and  _213
REMARK   78  A    between atoms: _218  and  _220
REMARK   79  A    between atoms: _220  and  _221
REMARK   80  A    between atoms: _220  and  _223
REMARK   81  A    between atoms: _223  and  _224
REMARK   82  A    between atoms: _224  and  _225
REMARK   83  A    between atoms: _225  and  _226
REMARK   84  A    between atoms: _235  and  _237
REMARK   85  A    between atoms: _237  and  _238
REMARK   86  A    between atoms: _237  and  _240
REMARK   87  A    between atoms: _243  and  _245
REMARK   88  A    between atoms: _245  and  _246
REMARK   89  A    between atoms: _245  and  _248
REMARK   90  A    between atoms: _248  and  _249
REMARK   91  A    between atoms: _252  and  _254
REMARK   92  A    between atoms: _254  and  _255
REMARK   93  A    between atoms: _254  and  _257
REMARK   94  A    between atoms: _257  and  _258
REMARK   95  A    between atoms: _258  and  _259
REMARK   96  A    between atoms: _262  and  _264
REMARK   97  A    between atoms: _264  and  _265
REMARK   98  A    between atoms: _268  and  _270
REMARK   99  A    between atoms: _270  and  _271
REMARK  100  A    between atoms: _270  and  _273
REMARK  101  A    between atoms: _273  and  _274
REMARK  102  A    between atoms: _277  and  _279
REMARK  103  A    between atoms: _279  and  _280
REMARK  104  A    between atoms: _279  and  _282
REMARK  105  A    between atoms: _282  and  _283
REMARK  106  A    between atoms: _286  and  _288
REMARK  107  A    between atoms: _288  and  _289
REMARK  108  A    between atoms: _292  and  _294
REMARK  109  A    between atoms: _294  and  _295
REMARK  110  A    between atoms: _294  and  _297
REMARK  111  A    between atoms: _300  and  _302
REMARK  112  A    between atoms: _302  and  _303
REMARK  113  A    between atoms: _302  and  _305
REMARK  114  A    between atoms: _305  and  _306
REMARK  115  A    between atoms: _309  and  _311
REMARK  116  A    between atoms: _311  and  _312
REMARK  117  A    between atoms: _315  and  _317
REMARK  118  A    between atoms: _317  and  _318
REMARK  119  A    between atoms: _317  and  _320
REMARK  120  A    between atoms: _320  and  _321
REMARK  121  A    between atoms: _323  and  _325
REMARK  122  A    between atoms: _325  and  _326
REMARK  123  A    between atoms: _325  and  _328
REMARK  124  A    between atoms: _328  and  _329
REMARK  125  A    between atoms: _332  and  _334
REMARK  126  A    between atoms: _334  and  _335
REMARK  127  A    between atoms: _334  and  _337
REMARK  128  A    between atoms: _337  and  _338
REMARK  129  A    between atoms: _341  and  _343
REMARK  130  A    between atoms: _343  and  _344
REMARK  131  A    between atoms: _343  and  _346
REMARK  132  A    between atoms: _346  and  _347
REMARK  133  A    between atoms: _351  and  _352
REMARK  134  A    between atoms: _358  and  _359
REMARK  135  A    between atoms: _364  and  _366
REMARK  136  A    between atoms: _366  and  _367
REMARK  137  A    between atoms: _366  and  _369
REMARK  138  A    between atoms: _371  and  _373
REMARK  139  A    between atoms: _373  and  _374
REMARK  140  A    between atoms: _377  and  _379
REMARK  141  A    between atoms: _379  and  _380
REMARK  142  A    between atoms: _379  and  _382
REMARK  143  A    between atoms: _385  and  _387
REMARK  144  A    between atoms: _387  and  _388
REMARK  145  A    between atoms: _387  and  _390
REMARK  146  A    between atoms: _390  and  _391
REMARK  147  A    between atoms: _401  and  _403
REMARK  148  A    between atoms: _403  and  _404
REMARK  149  A    between atoms: _403  and  _406
REMARK  150  A    between atoms: _406  and  _407
REMARK  151  A    between atoms: _412  and  _414
REMARK  152  A    between atoms: _414  and  _415
REMARK  153  A    between atoms: _414  and  _417
REMARK  154  A    between atoms: _417  and  _418
REMARK  155  A    between atoms: _418  and  _419
REMARK  156  A    between atoms: _419  and  _420
REMARK                            x       y       z     vdW  Elec       q    Type
REMARK                         _______ _______ _______ _____ _____    ______ ____
ROOT
ATOM      1  CA  VAL A   3     -21.788  -2.338  -5.513  0.00  0.00    +0.149 C 
ENDROOT
BRANCH   1   4
ATOM      2  C   ALA A   2     -22.438  -0.555  -7.029  0.00  0.00    +0.241 C 
ATOM      3  O   ALA A   2     -22.378   0.287  -6.138  0.00  0.00    -0.273 OA
ATOM      4  N   VAL A   3     -22.180  -1.847  -6.820  0.00  0.00    -0.297 N 
ATOM      5  H   VAL A   3     -22.262  -2.517  -7.612  0.00  0.00    +0.150 HD
BRANCH   2   6
ATOM      6  CA  ALA A   2     -22.774  -0.146  -8.457  0.00  0.00    +0.149 C 
ATOM      7  CB  ALA A   2     -21.592   0.566  -9.109  0.00  0.00    +0.031 C 
BRANCH   6   9
ATOM      8  C   LEU A   1     -24.953   0.535  -9.291  0.00  0.00    +0.238 C 
ATOM      9  N   ALA A   2     -23.935   0.714  -8.453  0.00  0.00    -0.297 N 
ATOM     10  H   ALA A   2     -23.976   1.499  -7.772  0.00  0.00    +0.150 HD
ATOM     11  O   LEU A   1     -24.971  -0.313 -10.197  0.00  0.00    -0.274 OA
BRANCH   8  12
ATOM     12  CA  LEU A   1     -26.124   1.458  -9.080  0.00  0.00    +0.145 C 
BRANCH  12  13
ATOM     13  N   LEU A   1     -26.717   1.773 -10.348  0.00  0.00    -0.238 NA
ATOM     14  H   LEU A   1     -27.035   0.990 -10.954  0.00  0.00    +0.142 HD
ENDBRANCH  12  13
BRANCH  12  15
ATOM     15  CB  LEU A   1     -27.138   0.756  -8.181  0.00  0.00    +0.026 C 
BRANCH  15  16
ATOM     16  CG  LEU A   1     -28.400   1.559  -7.877  0.00  0.00    +0.002 C 
ATOM     17  CD2 LEU A   1     -28.040   2.810  -7.081  0.00  0.00    +0.000 C 
ATOM     18  CD1 LEU A   1     -29.362   0.690  -7.100  0.00  0.00    +0.000 C 
ENDBRANCH  15  16
ENDBRANCH  12  15
ENDBRANCH   8  12
ENDBRANCH   6   9
ENDBRANCH   2   6
ENDBRANCH   1   4
BRANCH   1  19
ATOM     19  C   VAL A   3     -20.374  -2.900  -5.592  0.00  0.00    +0.241 C 
ATOM     20  N   LEU A   4     -19.546  -2.486  -4.637  0.00  0.00    -0.297 N 
ATOM     21  H   LEU A   4     -19.850  -1.696  -4.033  0.00  0.00    +0.150 HD
ATOM     22  O   VAL A   3     -20.040  -3.641  -6.531  0.00  0.00    -0.273 OA
BRANCH  20  23
ATOM     23  CA  LEU A   4     -18.226  -3.081  -4.387  0.00  0.00    +0.149 C 
BRANCH  23  24
ATOM     24  C   LEU A   4     -18.374  -4.130  -3.305  0.00  0.00    +0.241 C 
ATOM     25  O   LEU A   4     -18.930  -3.837  -2.248  0.00  0.00    -0.273 OA
ATOM     26  N   ALA A   5     -17.884  -5.336  -3.576  0.00  0.00    -0.298 N 
ATOM     27  H   ALA A   5     -17.359  -5.472  -4.464  0.00  0.00    +0.150 HD
BRANCH  26  28
ATOM     28  CA  ALA A   5     -18.050  -6.470  -2.686  0.00  0.00    +0.137 C 
ATOM     29  CB  ALA A   5     -19.005  -7.477  -3.305  0.00  0.00    +0.030 C 
BRANCH  28  30
ATOM     30  C   ALA A   5     -16.698  -7.129  -2.390  0.00  0.00    +0.227 C 
ATOM     31  O   ALA A   5     -15.900  -7.366  -3.312  0.00  0.00    -0.286 OA
ENDBRANCH  28  30
ENDBRANCH  26  28
ENDBRANCH  23  24
BRANCH  23  32
ATOM     32  CB  LEU A   4     -17.231  -2.043  -3.914  0.00  0.00    +0.029 C 
BRANCH  32  33
ATOM     33  CG  LEU A   4     -16.951  -0.871  -4.846  0.00  0.00    +0.002 C 
ATOM     34  CD2 LEU A   4     -15.709  -0.140  -4.367  0.00  0.00    +0.000 C 
ATOM     35  CD1 LEU A   4     -16.771  -1.305  -6.267  0.00  0.00    +0.000 C 
ENDBRANCH  32  33
ENDBRANCH  23  32
ENDBRANCH  20  23
ENDBRANCH   1  19
BRANCH   1  36
ATOM     36  CB  VAL A   3     -22.766  -3.406  -4.973  0.00  0.00    +0.027 C 
ATOM     37  CG2 VAL A   3     -22.430  -3.775  -3.527  0.00  0.00    +0.002 C 
ATOM     38  CG1 VAL A   3     -24.185  -2.913  -5.062  0.00  0.00    +0.002 C 
ENDBRANCH   1  36
TORSDOF 15
REMARK  Name = ../refined-set-2016/5fl5/5fl5_pocket.pdb
REMARK  156 active torsions:
REMARK  status: ('A' for Active; 'I' for Inactive)
REMARK    1  A    between atoms: _1  and  _5
REMARK    2  A    between atoms: _5  and  _6
REMARK    3  A    between atoms: _5  and  _8
REMARK    4  A    between atoms: _8  and  _9
REMARK    5  A    between atoms: _19  and  _21
REMARK    6  A    between atoms: _21  and  _22
REMARK    7  A    between atoms: _21  and  _24
REMARK    8  A    between atoms: _24  and  _25
REMARK    9  A    between atoms: _30  and  _31
REMARK   10  A    between atoms: _33  and  _35
REMARK   11  A    between atoms: _35  and  _36
REMARK   12  A    between atoms: _35  and  _38
REMARK   13  A    between atoms: _38  and  _39
REMARK   14  A    between atoms: _42  and  _43
REMARK   15  A    between atoms: _48  and  _50
REMARK   16  A    between atoms: _50  and  _51
REMARK   17  A    between atoms: _50  and  _53
REMARK   18  A    between atoms: _53  and  _54
REMARK   19  A    between atoms: _59  and  _61
REMARK   20  A    between atoms: _61  and  _62
REMARK   21  A    between atoms: _61  and  _64
REMARK   22  A    between atoms: _64  and  _65
REMARK   23  A    between atoms: _67  and  _69
REMARK   24  A    between atoms: _69  and  _70
REMARK   25  A    between atoms: _69  and  _72
REMARK   26  A    between atoms: _72  and  _73
REMARK   27  A    between atoms: _73  and  _74
REMARK   28  A    between atoms: _79  and  _81
REMARK   29  A    between atoms: _81  and  _82
REMARK   30  A    between atoms: _81  and  _84
REMARK   31  A    between atoms: _84  and  _85
REMARK   32  A    between atoms: _88  and  _90
REMARK   33  A    between atoms: _90  and  _91
REMARK   34  A    between atoms: _90  and  _93
REMARK   35  A    between atoms: _93  and  _94
REMARK   36  A    between atoms: _94  and  _95
REMARK   37  A    between atoms: _100  and  _102
REMARK   38  A    between atoms: _102  and  _103
REMARK   39  A    between atoms: _102  and  _105
REMARK   40  A    between atoms: _105  and  _106
REMARK   41  A    between atoms: _109  and  _111
REMARK   42  A    between atoms: _122  and  _125
REMARK   43  A    between atoms: _125  and  _126
REMARK   44  A    between atoms: _131  and  _132
REMARK   45  A    between atoms: _140  and  _142
REMARK   46  A    between atoms: _142  and  _143
REMARK   47  A    between atoms: _142  and  _145
REMARK   48  A    between atoms: _145  and  _146
REMARK   49  A    between atoms: _146  and  _147
REMARK   50  A    between atoms: _150  and  _152
REMARK   51  A    between atoms: _152  and  _153
REMARK   52  A    between atoms: _152  and  _155
REMARK   53  A    between atoms: _155  and  _156
REMARK   54  A    between atoms: _161  and  _163
REMARK   55  A    between atoms: _163  and  _164
REMARK   56  A    between atoms: _163  and  _166
REMARK   57  A    between atoms: _166  and  _167
REMARK   58  A    between atoms: _167  and  _168
REMARK   59  A    between atoms: _171  and  _173
REMARK   60  A    between atoms: _173  and  _174
REMARK   61  A    between atoms: _173  and  _176
REMARK   62  A    between atoms: _176  and  _177
REMARK   63  A    between atoms: _180  and  _182
REMARK   64  A    between atoms: _182  and  _183
REMARK   65  A    between atoms: _182  and  _185
REMARK   66  A    between atoms: _185  and  _186
REMARK   67  A    between atoms: _187  and  ZN_429
REMARK   68  A    between atoms: _191  and  _193
REMARK   69  A    between atoms: _193  and  _194
REMARK   70  A    between atoms: _193  and  _196
REMARK   71  A    between atoms: _199  and  _201
REMARK   72  A    between atoms: _201  and  _202
REMARK   73  A    between atoms: _201  and  _204
REMARK   74  A    between atoms: _207  and  _209
REMARK   75  A    between atoms: _209  and  _210
REMARK   76  A    between atoms: _209  and  _212
REMARK   77  A    between atoms: _212  and  _213
REMARK   78  A    between atoms: _218  and  _220
REMARK   79  A    between atoms: _220  and  _221
REMARK   80  A    between atoms: _220  and  _223
REMARK   81  A    between atoms: _223  and  _224
REMARK   82  A    between atoms: _224  and  _225
REMARK   83  A    between atoms: _225  and  _226
REMARK   84  A    between atoms: _235  and  _237
REMARK   85  A    between atoms: _237  and  _238
REMARK   86  A    between atoms: _237  and  _240
REMARK   87  A    between atoms: _243  and  _245
REMARK   88  A    between atoms: _245  and  _246
REMARK   89  A    between atoms: _245  and  _248
REMARK   90  A    between atoms: _248  and  _249
REMARK   91  A    between atoms: _252  and  _254
REMARK   92  A    between atoms: _254  and  _255
REMARK   93  A    between atoms: _254  and  _257
REMARK   94  A    between atoms: _257  and  _258
REMARK   95  A    between atoms: _258  and  _259
REMARK   96  A    between atoms: _262  and  _264
REMARK   97  A    between atoms: _264  and  _265
REMARK   98  A    between atoms: _268  and  _270
REMARK   99  A    between atoms: _270  and  _271
REMARK  100  A    between atoms: _270  and  _273
REMARK  101  A    between atoms: _273  and  _274
REMARK  102  A    between atoms: _277  and  _279
REMARK  103  A    between atoms: _279  and  _280
REMARK  104  A    between atoms: _279  and  _282
REMARK  105  A    between atoms: _282  and  _283
REMARK  106  A    between atoms: _286  and  _288
REMARK  107  A    between atoms: _288  and  _289
REMARK  108  A    between atoms: _292  and  _294
REMARK  109  A    between atoms: _294  and  _295
REMARK  110  A    between atoms: _294  and  _297
REMARK  111  A    between atoms: _300  and  _302
REMARK  112  A    between atoms: _302  and  _303
REMARK  113  A    between atoms: _302  and  _305
REMARK  114  A    between atoms: _305  and  _306
REMARK  115  A    between atoms: _309  and  _311
REMARK  116  A    between atoms: _311  and  _312
REMARK  117  A    between atoms: _315  and  _317
REMARK  118  A    between atoms: _317  and  _318
REMARK  119  A    between atoms: _317  and  _320
REMARK  120  A    between atoms: _320  and  _321
REMARK  121  A    between atoms: _323  and  _325
REMARK  122  A    between atoms: _325  and  _326
REMARK  123  A    between atoms: _325  and  _328
REMARK  124  A    between atoms: _328  and  _329
REMARK  125  A    between atoms: _332  and  _334
REMARK  126  A    between atoms: _334  and  _335
REMARK  127  A    between atoms: _334  and  _337
REMARK  128  A    between atoms: _337  and  _338
REMARK  129  A    between atoms: _341  and  _343
REMARK  130  A    between atoms: _343  and  _344
REMARK  131  A    between atoms: _343  and  _346
REMARK  132  A    between atoms: _346  and  _347
REMARK  133  A    between atoms: _351  and  _352
REMARK  134  A    between atoms: _358  and  _359
REMARK  135  A    between atoms: _364  and  _366
REMARK  136  A    between atoms: _366  and  _367
REMARK  137  A    between atoms: _366  and  _369
REMARK  138  A    between atoms: _371  and  _373
REMARK  139  A    between atoms: _373  and  _374
REMARK  140  A    between atoms: _377  and  _379
REMARK  141  A    between atoms: _379  and  _380
REMARK  142  A    between atoms: _379  and  _382
REMARK  143  A    between atoms: _385  and  _387
REMARK  144  A    between atoms: _387  and  _388
REMARK  145  A    between atoms: _387  and  _390
REMARK  146  A    between atoms: _390  and  _391
REMARK  147  A    between atoms: _401  and  _403
REMARK  148  A    between atoms: _403  and  _404
REMARK  149  A    between atoms: _403  and  _406
REMARK  150  A    between atoms: _406  and  _407
REMARK  151  A    between atoms: _412  and  _414
REMARK  152  A    between atoms: _414  and  _415
REMARK  153  A    between atoms: _414  and  _417
REMARK  154  A    between atoms: _417  and  _418
REMARK  155  A    between atoms: _418  and  _419
REMARK  156  A    between atoms: _419  and  _420
REMARK                            x       y       z     vdW  Elec       q    Type
REMARK                         _______ _______ _______ _____ _____    ______ ____
ROOT
ATOM      1  CA  THR A   4     -32.855  -8.036  -1.334  0.00  0.00    +0.176 C 
ENDROOT
BRANCH   1   2
ATOM      2  C   THR A   4     -33.880  -7.259  -2.132  0.00  0.00    +0.246 C 
ATOM      3  N   PRO A   5     -35.174  -7.348  -1.742  0.00  0.00    -0.272 N 
ATOM      4  CD  PRO A   5     -35.822  -8.284  -0.805  0.00  0.00    +0.094 C 
ATOM      5  CG  PRO A   5     -37.285  -8.175  -1.181  0.00  0.00    +0.024 C 
ATOM      6  CB  PRO A   5     -37.430  -6.754  -1.611  0.00  0.00    +0.031 C 
ATOM      7  CA  PRO A   5     -36.166  -6.501  -2.409  0.00  0.00    +0.152 C 
ATOM      8  O   THR A   4     -33.502  -6.539  -3.069  0.00  0.00    -0.273 OA
BRANCH   7   9
ATOM      9  C   PRO A   5     -35.731  -5.053  -2.338  0.00  0.00    +0.244 C 
ATOM     10  O   PRO A   5     -35.194  -4.662  -1.297  0.00  0.00    -0.273 OA
ATOM     11  N   PRO A   6     -35.911  -4.269  -3.407  0.00  0.00    -0.272 N 
ATOM     12  CD  PRO A   6     -35.446  -2.872  -3.460  0.00  0.00    +0.094 C 
ATOM     13  CG  PRO A   6     -36.053  -2.357  -4.730  0.00  0.00    +0.024 C 
ATOM     14  CB  PRO A   6     -37.168  -3.266  -5.118  0.00  0.00    +0.031 C 
ATOM     15  CA  PRO A   6     -36.738  -4.627  -4.580  0.00  0.00    +0.152 C 
BRANCH  15  16
ATOM     16  C   PRO A   6     -36.078  -5.485  -5.692  0.00  0.00    +0.241 C 
ATOM     17  N   CYS A   7     -34.841  -5.946  -5.483  0.00  0.00    -0.296 N 
ATOM     18  H   CYS A   7     -34.350  -5.668  -4.609  0.00  0.00    +0.150 HD
ATOM     19  O   PRO A   6     -36.714  -5.734  -6.706  0.00  0.00    -0.273 OA
BRANCH  17  20
ATOM     20  CA  CYS A   7     -34.143  -6.826  -6.429  0.00  0.00    +0.160 C 
BRANCH  20  21
ATOM     21  C   CYS A   7     -34.010  -6.245  -7.832  0.00  0.00    +0.242 C 
ATOM     22  N   ALA A   8     -33.870  -4.928  -7.916  0.00  0.00    -0.298 N 
ATOM     23  H   ALA A   8     -33.801  -4.367  -7.043  0.00  0.00    +0.150 HD
ATOM     24  O   CYS A   7     -34.004  -6.972  -8.811  0.00  0.00    -0.273 OA
BRANCH  22  25
ATOM     25  CA  ALA A   8     -33.811  -4.256  -9.196  0.00  0.00    +0.137 C 
ATOM     26  CB  ALA A   8     -33.862  -2.754  -8.996  0.00  0.00    +0.030 C 
BRANCH  25  27
ATOM     27  C   ALA A   8     -32.543  -4.678  -9.945  0.00  0.00    +0.227 C 
ATOM     28  O   ALA A   8     -31.466  -4.811  -9.349  0.00  0.00    -0.286 OA
ENDBRANCH  25  27
ENDBRANCH  22  25
ENDBRANCH  20  21
BRANCH  20  29
ATOM     29  CB  CYS A   7     -34.814  -8.189  -6.520  0.00  0.00    +0.098 C 
ATOM     30  SG  CYS A   7     -35.046  -9.064  -4.972  0.00  0.00    -0.080 S 
ENDBRANCH  20  29
ENDBRANCH  17  20
ENDBRANCH  15  16
ENDBRANCH   7   9
ENDBRANCH   1   2
BRANCH   1  33
ATOM     31  C   THR A   3     -30.911  -9.138  -2.311  0.00  0.00    +0.243 C 
ATOM     32  O   THR A   3     -31.104 -10.195  -1.700  0.00  0.00    -0.273 OA
ATOM     33  N   THR A   4     -31.622  -8.038  -2.112  0.00  0.00    -0.295 N 
ATOM     34  H   THR A   4     -31.289  -7.144  -2.526  0.00  0.00    +0.150 HD
BRANCH  31  35
ATOM     35  CA  THR A   3     -29.788  -9.051  -3.335  0.00  0.00    +0.176 C 
BRANCH  35  37
ATOM     36  C   LEU A   2     -30.280  -7.349  -5.061  0.00  0.00    +0.241 C 
ATOM     37  N   THR A   3     -29.647  -7.719  -3.940  0.00  0.00    -0.295 N 
ATOM     38  H   THR A   3     -29.024  -7.029  -3.474  0.00  0.00    +0.150 HD
ATOM     39  O   LEU A   2     -31.060  -8.074  -5.684  0.00  0.00    -0.273 OA
BRANCH  36  40
ATOM     40  CA  LEU A   2     -29.937  -5.967  -5.611  0.00  0.00    +0.149 C 
BRANCH  40  42
ATOM     41  C   SER A   1     -29.027  -6.815  -7.695  0.00  0.00    +0.241 C 
ATOM     42  N   LEU A   2     -29.930  -6.068  -7.057  0.00  0.00    -0.297 N 
ATOM     43  H   LEU A   2     -30.643  -5.548  -7.608  0.00  0.00    +0.150 HD
ATOM     44  O   SER A   1     -28.001  -7.256  -7.174  0.00  0.00    -0.274 OA
BRANCH  41  45
ATOM     45  CA  SER A   1     -29.362  -7.120  -9.122  0.00  0.00    +0.174 C 
BRANCH  45  46
ATOM     46  N   SER A   1     -28.235  -7.725  -9.823  0.00  0.00    -0.236 NA
ATOM     47  H   SER A   1     -27.646  -8.425  -9.327  0.00  0.00    +0.142 HD
ENDBRANCH  45  46
BRANCH  45  48
ATOM     48  CB  SER A   1     -30.591  -8.051  -9.148  0.00  0.00    +0.163 C 
BRANCH  48  49
ATOM     49  OG  SER A   1     -30.515  -9.062  -8.129  0.00  0.00    -0.380 OA
ATOM     50  H   SER A   1     -30.470  -8.630  -7.240  0.00  0.00    +0.211 HD
ENDBRANCH  48  49
ENDBRANCH  45  48
ENDBRANCH  41  45
ENDBRANCH  40  42
BRANCH  40  51
ATOM     51  CB  LEU A   2     -30.952  -4.908  -5.162  0.00  0.00    +0.029 C 
BRANCH  51  52
ATOM     52  CG  LEU A   2     -30.664  -3.482  -5.651  0.00  0.00    +0.002 C 
ATOM     53  CD2 LEU A   2     -31.731  -2.547  -5.115  0.00  0.00    +0.000 C 
ATOM     54  CD1 LEU A   2     -29.287  -2.999  -5.208  0.00  0.00    +0.000 C 
ENDBRANCH  51  52
ENDBRANCH  40  51
ENDBRANCH  36  40
ENDBRANCH  35  37
BRANCH  35  55
ATOM     55  CB  THR A   3     -28.490  -9.533  -2.668  0.00  0.00    +0.137 C 
ATOM     56  CG2 THR A   3     -27.292  -9.433  -3.642  0.00  0.00    +0.034 C 
BRANCH  55  57
ATOM     57  OG1 THR A   3     -28.244  -8.786  -1.474  0.00  0.00    -0.382 OA
ATOM     58  HG1 THR A   3     -27.406  -9.105  -1.053  0.00  0.00    +0.210 HD
ENDBRANCH  55  57
ENDBRANCH  35  55
ENDBRANCH  31  35
ENDBRANCH   1  33
BRANCH   1  59
ATOM     59  CB  THR A   4     -32.704  -7.352   0.039  0.00  0.00    +0.137 C 
ATOM     60  CG2 THR A   4     -31.501  -7.886   0.794  0.00  0.00    +0.034 C 
BRANCH  59  61
ATOM     61  OG1 THR A   4     -32.595  -5.939  -0.131  0.00  0.00    -0.382 OA
ATOM     62  HG1 THR A   4     -33.410  -5.598  -0.578  0.00  0.00    +0.210 HD
ENDBRANCH  59  61
ENDBRANCH   1  59
TORSDOF 23
REMARK  Name = ../refined-set-2016/5fl5/5fl5_pocket.pdb
REMARK  156 active torsions:
REMARK  status: ('A' for Active; 'I' for Inactive)
REMARK    1  A    between atoms: _1  and  _5
REMARK    2  A    between atoms: _5  and  _6
REMARK    3  A    between atoms: _5  and  _8
REMARK    4  A    between atoms: _8  and  _9
REMARK    5  A    between atoms: _19  and  _21
REMARK    6  A    between atoms: _21  and  _22
REMARK    7  A    between atoms: _21  and  _24
REMARK    8  A    between atoms: _24  and  _25
REMARK    9  A    between atoms: _30  and  _31
REMARK   10  A    between atoms: _33  and  _35
REMARK   11  A    between atoms: _35  and  _36
REMARK   12  A    between atoms: _35  and  _38
REMARK   13  A    between atoms: _38  and  _39
REMARK   14  A    between atoms: _42  and  _43
REMARK   15  A    between atoms: _48  and  _50
REMARK   16  A    between atoms: _50  and  _51
REMARK   17  A    between atoms: _50  and  _53
REMARK   18  A    between atoms: _53  and  _54
REMARK   19  A    between atoms: _59  and  _61
REMARK   20  A    between atoms: _61  and  _62
REMARK   21  A    between atoms: _61  and  _64
REMARK   22  A    between atoms: _64  and  _65
REMARK   23  A    between atoms: _67  and  _69
REMARK   24  A    between atoms: _69  and  _70
REMARK   25  A    between atoms: _69  and  _72
REMARK   26  A    between atoms: _72  and  _73
REMARK   27  A    between atoms: _73  and  _74
REMARK   28  A    between atoms: _79  and  _81
REMARK   29  A    between atoms: _81  and  _82
REMARK   30  A    between atoms: _81  and  _84
REMARK   31  A    between atoms: _84  and  _85
REMARK   32  A    between atoms: _88  and  _90
REMARK   33  A    between atoms: _90  and  _91
REMARK   34  A    between atoms: _90  and  _93
REMARK   35  A    between atoms: _93  and  _94
REMARK   36  A    between atoms: _94  and  _95
REMARK   37  A    between atoms: _100  and  _102
REMARK   38  A    between atoms: _102  and  _103
REMARK   39  A    between atoms: _102  and  _105
REMARK   40  A    between atoms: _105  and  _106
REMARK   41  A    between atoms: _109  and  _111
REMARK   42  A    between atoms: _122  and  _125
REMARK   43  A    between atoms: _125  and  _126
REMARK   44  A    between atoms: _131  and  _132
REMARK   45  A    between atoms: _140  and  _142
REMARK   46  A    between atoms: _142  and  _143
REMARK   47  A    between atoms: _142  and  _145
REMARK   48  A    between atoms: _145  and  _146
REMARK   49  A    between atoms: _146  and  _147
REMARK   50  A    between atoms: _150  and  _152
REMARK   51  A    between atoms: _152  and  _153
REMARK   52  A    between atoms: _152  and  _155
REMARK   53  A    between atoms: _155  and  _156
REMARK   54  A    between atoms: _161  and  _163
REMARK   55  A    between atoms: _163  and  _164
REMARK   56  A    between atoms: _163  and  _166
REMARK   57  A    between atoms: _166  and  _167
REMARK   58  A    between atoms: _167  and  _168
REMARK   59  A    between atoms: _171  and  _173
REMARK   60  A    between atoms: _173  and  _174
REMARK   61  A    between atoms: _173  and  _176
REMARK   62  A    between atoms: _176  and  _177
REMARK   63  A    between atoms: _180  and  _182
REMARK   64  A    between atoms: _182  and  _183
REMARK   65  A    between atoms: _182  and  _185
REMARK   66  A    between atoms: _185  and  _186
REMARK   67  A    between atoms: _187  and  ZN_429
REMARK   68  A    between atoms: _191  and  _193
REMARK   69  A    between atoms: _193  and  _194
REMARK   70  A    between atoms: _193  and  _196
REMARK   71  A    between atoms: _199  and  _201
REMARK   72  A    between atoms: _201  and  _202
REMARK   73  A    between atoms: _201  and  _204
REMARK   74  A    between atoms: _207  and  _209
REMARK   75  A    between atoms: _209  and  _210
REMARK   76  A    between atoms: _209  and  _212
REMARK   77  A    between atoms: _212  and  _213
REMARK   78  A    between atoms: _218  and  _220
REMARK   79  A    between atoms: _220  and  _221
REMARK   80  A    between atoms: _220  and  _223
REMARK   81  A    between atoms: _223  and  _224
REMARK   82  A    between atoms: _224  and  _225
REMARK   83  A    between atoms: _225  and  _226
REMARK   84  A    between atoms: _235  and  _237
REMARK   85  A    between atoms: _237  and  _238
REMARK   86  A    between atoms: _237  and  _240
REMARK   87  A    between atoms: _243  and  _245
REMARK   88  A    between atoms: _245  and  _246
REMARK   89  A    between atoms: _245  and  _248
REMARK   90  A    between atoms: _248  and  _249
REMARK   91  A    between atoms: _252  and  _254
REMARK   92  A    between atoms: _254  and  _255
REMARK   93  A    between atoms: _254  and  _257
REMARK   94  A    between atoms: _257  and  _258
REMARK   95  A    between atoms: _258  and  _259
REMARK   96  A    between atoms: _262  and  _264
REMARK   97  A    between atoms: _264  and  _265
REMARK   98  A    between atoms: _268  and  _270
REMARK   99  A    between atoms: _270  and  _271
REMARK  100  A    between atoms: _270  and  _273
REMARK  101  A    between atoms: _273  and  _274
REMARK  102  A    between atoms: _277  and  _279
REMARK  103  A    between atoms: _279  and  _280
REMARK  104  A    between atoms: _279  and  _282
REMARK  105  A    between atoms: _282  and  _283
REMARK  106  A    between atoms: _286  and  _288
REMARK  107  A    between atoms: _288  and  _289
REMARK  108  A    between atoms: _292  and  _294
REMARK  109  A    between atoms: _294  and  _295
REMARK  110  A    between atoms: _294  and  _297
REMARK  111  A    between atoms: _300  and  _302
REMARK  112  A    between atoms: _302  and  _303
REMARK  113  A    between atoms: _302  and  _305
REMARK  114  A    between atoms: _305  and  _306
REMARK  115  A    between atoms: _309  and  _311
REMARK  116  A    between atoms: _311  and  _312
REMARK  117  A    between atoms: _315  and  _317
REMARK  118  A    between atoms: _317  and  _318
REMARK  119  A    between atoms: _317  and  _320
REMARK  120  A    between atoms: _320  and  _321
REMARK  121  A    between atoms: _323  and  _325
REMARK  122  A    between atoms: _325  and  _326
REMARK  123  A    between atoms: _325  and  _328
REMARK  124  A    between atoms: _328  and  _329
REMARK  125  A    between atoms: _332  and  _334
REMARK  126  A    between atoms: _334  and  _335
REMARK  127  A    between atoms: _334  and  _337
REMARK  128  A    between atoms: _337  and  _338
REMARK  129  A    between atoms: _341  and  _343
REMARK  130  A    between atoms: _343  and  _344
REMARK  131  A    between atoms: _343  and  _346
REMARK  132  A    between atoms: _346  and  _347
REMARK  133  A    between atoms: _351  and  _352
REMARK  134  A    between atoms: _358  and  _359
REMARK  135  A    between atoms: _364  and  _366
REMARK  136  A    between atoms: _366  and  _367
REMARK  137  A    between atoms: _366  and  _369
REMARK  138  A    between atoms: _371  and  _373
REMARK  139  A    between atoms: _373  and  _374
REMARK  140  A    between atoms: _377  and  _379
REMARK  141  A    between atoms: _379  and  _380
REMARK  142  A    between atoms: _379  and  _382
REMARK  143  A    between atoms: _385  and  _387
REMARK  144  A    between atoms: _387  and  _388
REMARK  145  A    between atoms: _387  and  _390
REMARK  146  A    between atoms: _390  and  _391
REMARK  147  A    between atoms: _401  and  _403
REMARK  148  A    between atoms: _403  and  _404
REMARK  149  A    between atoms: _403  and  _406
REMARK  150  A    between atoms: _406  and  _407
REMARK  151  A    between atoms: _412  and  _414
REMARK  152  A    between atoms: _414  and  _415
REMARK  153  A    between atoms: _414  and  _417
REMARK  154  A    between atoms: _417  and  _418
REMARK  155  A    between atoms: _418  and  _419
REMARK  156  A    between atoms: _419  and  _420
REMARK                            x       y       z     vdW  Elec       q    Type
REMARK                         _______ _______ _______ _____ _____    ______ ____
ROOT
ATOM      1  CA  VAL A   1     -26.592  -3.260 -10.855  0.00  0.00    +0.133 C 
ENDROOT
BRANCH   1   2
ATOM      2  CB  VAL A   1     -26.934  -3.866  -9.478  0.00  0.00    +0.023 C 
ATOM      3  CG2 VAL A   1     -25.883  -3.479  -8.454  0.00  0.00    +0.002 C 
ATOM      4  CG1 VAL A   1     -28.324  -3.425  -9.027  0.00  0.00    +0.002 C 
ENDBRANCH   1   2
BRANCH   1   5
ATOM      5  N   VAL A   1     -27.581  -3.581 -11.870  0.00  0.00    -0.239 NA
ATOM      6  H   VAL A   1     -28.150  -4.445 -11.766  0.00  0.00    +0.142 HD
ENDBRANCH   1   5
BRANCH   1   7
ATOM      7  C   VAL A   1     -25.263  -3.827 -11.306  0.00  0.00    +0.224 C 
ATOM      8  O   VAL A   1     -25.174  -5.018 -11.635  0.00  0.00    -0.287 OA
ENDBRANCH   1   7
TORSDOF 3
REMARK  Name = ../refined-set-2016/5fl5/5fl5_pocket.pdb
REMARK  156 active torsions:
REMARK  status: ('A' for Active; 'I' for Inactive)
REMARK    1  A    between atoms: _1  and  _5
REMARK    2  A    between atoms: _5  and  _6
REMARK    3  A    between atoms: _5  and  _8
REMARK    4  A    between atoms: _8  and  _9
REMARK    5  A    between atoms: _19  and  _21
REMARK    6  A    between atoms: _21  and  _22
REMARK    7  A    between atoms: _21  and  _24
REMARK    8  A    between atoms: _24  and  _25
REMARK    9  A    between atoms: _30  and  _31
REMARK   10  A    between atoms: _33  and  _35
REMARK   11  A    between atoms: _35  and  _36
REMARK   12  A    between atoms: _35  and  _38
REMARK   13  A    between atoms: _38  and  _39
REMARK   14  A    between atoms: _42  and  _43
REMARK   15  A    between atoms: _48  and  _50
REMARK   16  A    between atoms: _50  and  _51
REMARK   17  A    between atoms: _50  and  _53
REMARK   18  A    between atoms: _53  and  _54
REMARK   19  A    between atoms: _59  and  _61
REMARK   20  A    between atoms: _61  and  _62
REMARK   21  A    between atoms: _61  and  _64
REMARK   22  A    between atoms: _64  and  _65
REMARK   23  A    between atoms: _67  and  _69
REMARK   24  A    between atoms: _69  and  _70
REMARK   25  A    between atoms: _69  and  _72
REMARK   26  A    between atoms: _72  and  _73
REMARK   27  A    between atoms: _73  and  _74
REMARK   28  A    between atoms: _79  and  _81
REMARK   29  A    between atoms: _81  and  _82
REMARK   30  A    between atoms: _81  and  _84
REMARK   31  A    between atoms: _84  and  _85
REMARK   32  A    between atoms: _88  and  _90
REMARK   33  A    between atoms: _90  and  _91
REMARK   34  A    between atoms: _90  and  _93
REMARK   35  A    between atoms: _93  and  _94
REMARK   36  A    between atoms: _94  and  _95
REMARK   37  A    between atoms: _100  and  _102
REMARK   38  A    between atoms: _102  and  _103
REMARK   39  A    between atoms: _102  and  _105
REMARK   40  A    between atoms: _105  and  _106
REMARK   41  A    between atoms: _109  and  _111
REMARK   42  A    between atoms: _122  and  _125
REMARK   43  A    between atoms: _125  and  _126
REMARK   44  A    between atoms: _131  and  _132
REMARK   45  A    between atoms: _140  and  _142
REMARK   46  A    between atoms: _142  and  _143
REMARK   47  A    between atoms: _142  and  _145
REMARK   48  A    between atoms: _145  and  _146
REMARK   49  A    between atoms: _146  and  _147
REMARK   50  A    between atoms: _150  and  _152
REMARK   51  A    between atoms: _152  and  _153
REMARK   52  A    between atoms: _152  and  _155
REMARK   53  A    between atoms: _155  and  _156
REMARK   54  A    between atoms: _161  and  _163
REMARK   55  A    between atoms: _163  and  _164
REMARK   56  A    between atoms: _163  and  _166
REMARK   57  A    between atoms: _166  and  _167
REMARK   58  A    between atoms: _167  and  _168
REMARK   59  A    between atoms: _171  and  _173
REMARK   60  A    between atoms: _173  and  _174
REMARK   61  A    between atoms: _173  and  _176
REMARK   62  A    between atoms: _176  and  _177
REMARK   63  A    between atoms: _180  and  _182
REMARK   64  A    between atoms: _182  and  _183
REMARK   65  A    between atoms: _182  and  _185
REMARK   66  A    between atoms: _185  and  _186
REMARK   67  A    between atoms: _187  and  ZN_429
REMARK   68  A    between atoms: _191  and  _193
REMARK   69  A    between atoms: _193  and  _194
REMARK   70  A    between atoms: _193  and  _196
REMARK   71  A    between atoms: _199  and  _201
REMARK   72  A    between atoms: _201  and  _202
REMARK   73  A    between atoms: _201  and  _204
REMARK   74  A    between atoms: _207  and  _209
REMARK   75  A    between atoms: _209  and  _210
REMARK   76  A    between atoms: _209  and  _212
REMARK   77  A    between atoms: _212  and  _213
REMARK   78  A    between atoms: _218  and  _220
REMARK   79  A    between atoms: _220  and  _221
REMARK   80  A    between atoms: _220  and  _223
REMARK   81  A    between atoms: _223  and  _224
REMARK   82  A    between atoms: _224  and  _225
REMARK   83  A    between atoms: _225  and  _226
REMARK   84  A    between atoms: _235  and  _237
REMARK   85  A    between atoms: _237  and  _238
REMARK   86  A    between atoms: _237  and  _240
REMARK   87  A    between atoms: _243  and  _245
REMARK   88  A    between atoms: _245  and  _246
REMARK   89  A    between atoms: _245  and  _248
REMARK   90  A    between atoms: _248  and  _249
REMARK   91  A    between atoms: _252  and  _254
REMARK   92  A    between atoms: _254  and  _255
REMARK   93  A    between atoms: _254  and  _257
REMARK   94  A    between atoms: _257  and  _258
REMARK   95  A    between atoms: _258  and  _259
REMARK   96  A    between atoms: _262  and  _264
REMARK   97  A    between atoms: _264  and  _265
REMARK   98  A    between atoms: _268  and  _270
REMARK   99  A    between atoms: _270  and  _271
REMARK  100  A    between atoms: _270  and  _273
REMARK  101  A    between atoms: _273  and  _274
REMARK  102  A    between atoms: _277  and  _279
REMARK  103  A    between atoms: _279  and  _280
REMARK  104  A    between atoms: _279  and  _282
REMARK  105  A    between atoms: _282  and  _283
REMARK  106  A    between atoms: _286  and  _288
REMARK  107  A    between atoms: _288  and  _289
REMARK  108  A    between atoms: _292  and  _294
REMARK  109  A    between atoms: _294  and  _295
REMARK  110  A    between atoms: _294  and  _297
REMARK  111  A    between atoms: _300  and  _302
REMARK  112  A    between atoms: _302  and  _303
REMARK  113  A    between atoms: _302  and  _305
REMARK  114  A    between atoms: _305  and  _306
REMARK  115  A    between atoms: _309  and  _311
REMARK  116  A    between atoms: _311  and  _312
REMARK  117  A    between atoms: _315  and  _317
REMARK  118  A    between atoms: _317  and  _318
REMARK  119  A    between atoms: _317  and  _320
REMARK  120  A    between atoms: _320  and  _321
REMARK  121  A    between atoms: _323  and  _325
REMARK  122  A    between atoms: _325  and  _326
REMARK  123  A    between atoms: _325  and  _328
REMARK  124  A    between atoms: _328  and  _329
REMARK  125  A    between atoms: _332  and  _334
REMARK  126  A    between atoms: _334  and  _335
REMARK  127  A    between atoms: _334  and  _337
REMARK  128  A    between atoms: _337  and  _338
REMARK  129  A    between atoms: _341  and  _343
REMARK  130  A    between atoms: _343  and  _344
REMARK  131  A    between atoms: _343  and  _346
REMARK  132  A    between atoms: _346  and  _347
REMARK  133  A    between atoms: _351  and  _352
REMARK  134  A    between atoms: _358  and  _359
REMARK  135  A    between atoms: _364  and  _366
REMARK  136  A    between atoms: _366  and  _367
REMARK  137  A    between atoms: _366  and  _369
REMARK  138  A    between atoms: _371  and  _373
REMARK  139  A    between atoms: _373  and  _374
REMARK  140  A    between atoms: _377  and  _379
REMARK  141  A    between atoms: _379  and  _380
REMARK  142  A    between atoms: _379  and  _382
REMARK  143  A    between atoms: _385  and  _387
REMARK  144  A    between atoms: _387  and  _388
REMARK  145  A    between atoms: _387  and  _390
REMARK  146  A    between atoms: _390  and  _391
REMARK  147  A    between atoms: _401  and  _403
REMARK  148  A    between atoms: _403  and  _404
REMARK  149  A    between atoms: _403  and  _406
REMARK  150  A    between atoms: _406  and  _407
REMARK  151  A    between atoms: _412  and  _414
REMARK  152  A    between atoms: _414  and  _415
REMARK  153  A    between atoms: _414  and  _417
REMARK  154  A    between atoms: _417  and  _418
REMARK  155  A    between atoms: _418  and  _419
REMARK  156  A    between atoms: _419  and  _420
REMARK                            x       y       z     vdW  Elec       q    Type
REMARK                         _______ _______ _______ _____ _____    ______ ____
ROOT
ATOM      1  CG  TRP A   1     -23.079  -7.135  -8.181  0.00  0.00    -0.002 A 
ATOM      2  CD2 TRP A   1     -23.271  -7.071  -6.782  0.00  0.00    +0.013 A 
ATOM      3  CE3 TRP A   1     -22.402  -7.067  -5.683  0.00  0.00    +0.001 A 
ATOM      4  CZ3 TRP A   1     -22.938  -7.010  -4.407  0.00  0.00    +0.000 A 
ATOM      5  CH2 TRP A   1     -24.329  -6.920  -4.200  0.00  0.00    +0.001 A 
ATOM      6  CZ2 TRP A   1     -25.201  -6.879  -5.260  0.00  0.00    +0.017 A 
ATOM      7  CE2 TRP A   1     -24.653  -6.966  -6.552  0.00  0.00    +0.056 A 
ATOM      8  NE1 TRP A   1     -25.267  -6.963  -7.768  0.00  0.00    -0.352 N 
ATOM      9  HE1 TRP A   1     -26.291  -6.892  -7.933  0.00  0.00    +0.166 HD
ATOM     10  CD1 TRP A   1     -24.298  -7.070  -8.742  0.00  0.00    +0.068 A 
ENDROOT
BRANCH   1  11
ATOM     11  CB  TRP A   1     -21.781  -7.223  -8.895  0.00  0.00    +0.053 C 
BRANCH  11  12
ATOM     12  CA  TRP A   1     -21.183  -5.846  -9.188  0.00  0.00    +0.137 C 
BRANCH  12  13
ATOM     13  N   TRP A   1     -21.848  -5.211 -10.332  0.00  0.00    -0.239 NA
ATOM     14  H   TRP A   1     -22.069  -5.793 -11.165  0.00  0.00    +0.142 HD
ENDBRANCH  12  13
BRANCH  12  15
ATOM     15  C   TRP A   1     -19.703  -5.976  -9.471  0.00  0.00    +0.224 C 
ATOM     16  O   TRP A   1     -19.305  -6.481 -10.520  0.00  0.00    -0.287 OA
ENDBRANCH  12  15
ENDBRANCH  11  12
ENDBRANCH   1  11
TORSDOF 4
REMARK  Name = ../refined-set-2016/5fl5/5fl5_pocket.pdb
REMARK  156 active torsions:
REMARK  status: ('A' for Active; 'I' for Inactive)
REMARK    1  A    between atoms: _1  and  _5
REMARK    2  A    between atoms: _5  and  _6
REMARK    3  A    between atoms: _5  and  _8
REMARK    4  A    between atoms: _8  and  _9
REMARK    5  A    between atoms: _19  and  _21
REMARK    6  A    between atoms: _21  and  _22
REMARK    7  A    between atoms: _21  and  _24
REMARK    8  A    between atoms: _24  and  _25
REMARK    9  A    between atoms: _30  and  _31
REMARK   10  A    between atoms: _33  and  _35
REMARK   11  A    between atoms: _35  and  _36
REMARK   12  A    between atoms: _35  and  _38
REMARK   13  A    between atoms: _38  and  _39
REMARK   14  A    between atoms: _42  and  _43
REMARK   15  A    between atoms: _48  and  _50
REMARK   16  A    between atoms: _50  and  _51
REMARK   17  A    between atoms: _50  and  _53
REMARK   18  A    between atoms: _53  and  _54
REMARK   19  A    between atoms: _59  and  _61
REMARK   20  A    between atoms: _61  and  _62
REMARK   21  A    between atoms: _61  and  _64
REMARK   22  A    between atoms: _64  and  _65
REMARK   23  A    between atoms: _67  and  _69
REMARK   24  A    between atoms: _69  and  _70
REMARK   25  A    between atoms: _69  and  _72
REMARK   26  A    between atoms: _72  and  _73
REMARK   27  A    between atoms: _73  and  _74
REMARK   28  A    between atoms: _79  and  _81
REMARK   29  A    between atoms: _81  and  _82
REMARK   30  A    between atoms: _81  and  _84
REMARK   31  A    between atoms: _84  and  _85
REMARK   32  A    between atoms: _88  and  _90
REMARK   33  A    between atoms: _90  and  _91
REMARK   34  A    between atoms: _90  and  _93
REMARK   35  A    between atoms: _93  and  _94
REMARK   36  A    between atoms: _94  and  _95
REMARK   37  A    between atoms: _100  and  _102
REMARK   38  A    between atoms: _102  and  _103
REMARK   39  A    between atoms: _102  and  _105
REMARK   40  A    between atoms: _105  and  _106
REMARK   41  A    between atoms: _109  and  _111
REMARK   42  A    between atoms: _122  and  _125
REMARK   43  A    between atoms: _125  and  _126
REMARK   44  A    between atoms: _131  and  _132
REMARK   45  A    between atoms: _140  and  _142
REMARK   46  A    between atoms: _142  and  _143
REMARK   47  A    between atoms: _142  and  _145
REMARK   48  A    between atoms: _145  and  _146
REMARK   49  A    between atoms: _146  and  _147
REMARK   50  A    between atoms: _150  and  _152
REMARK   51  A    between atoms: _152  and  _153
REMARK   52  A    between atoms: _152  and  _155
REMARK   53  A    between atoms: _155  and  _156
REMARK   54  A    between atoms: _161  and  _163
REMARK   55  A    between atoms: _163  and  _164
REMARK   56  A    between atoms: _163  and  _166
REMARK   57  A    between atoms: _166  and  _167
REMARK   58  A    between atoms: _167  and  _168
REMARK   59  A    between atoms: _171  and  _173
REMARK   60  A    between atoms: _173  and  _174
REMARK   61  A    between atoms: _173  and  _176
REMARK   62  A    between atoms: _176  and  _177
REMARK   63  A    between atoms: _180  and  _182
REMARK   64  A    between atoms: _182  and  _183
REMARK   65  A    between atoms: _182  and  _185
REMARK   66  A    between atoms: _185  and  _186
REMARK   67  A    between atoms: _187  and  ZN_429
REMARK   68  A    between atoms: _191  and  _193
REMARK   69  A    between atoms: _193  and  _194
REMARK   70  A    between atoms: _193  and  _196
REMARK   71  A    between atoms: _199  and  _201
REMARK   72  A    between atoms: _201  and  _202
REMARK   73  A    between atoms: _201  and  _204
REMARK   74  A    between atoms: _207  and  _209
REMARK   75  A    between atoms: _209  and  _210
REMARK   76  A    between atoms: _209  and  _212
REMARK   77  A    between atoms: _212  and  _213
REMARK   78  A    between atoms: _218  and  _220
REMARK   79  A    between atoms: _220  and  _221
REMARK   80  A    between atoms: _220  and  _223
REMARK   81  A    between atoms: _223  and  _224
REMARK   82  A    between atoms: _224  and  _225
REMARK   83  A    between atoms: _225  and  _226
REMARK   84  A    between atoms: _235  and  _237
REMARK   85  A    between atoms: _237  and  _238
REMARK   86  A    between atoms: _237  and  _240
REMARK   87  A    between atoms: _243  and  _245
REMARK   88  A    between atoms: _245  and  _246
REMARK   89  A    between atoms: _245  and  _248
REMARK   90  A    between atoms: _248  and  _249
REMARK   91  A    between atoms: _252  and  _254
REMARK   92  A    between atoms: _254  and  _255
REMARK   93  A    between atoms: _254  and  _257
REMARK   94  A    between atoms: _257  and  _258
REMARK   95  A    between atoms: _258  and  _259
REMARK   96  A    between atoms: _262  and  _264
REMARK   97  A    between atoms: _264  and  _265
REMARK   98  A    between atoms: _268  and  _270
REMARK   99  A    between atoms: _270  and  _271
REMARK  100  A    between atoms: _270  and  _273
REMARK  101  A    between atoms: _273  and  _274
REMARK  102  A    between atoms: _277  and  _279
REMARK  103  A    between atoms: _279  and  _280
REMARK  104  A    between atoms: _279  and  _282
REMARK  105  A    between atoms: _282  and  _283
REMARK  106  A    between atoms: _286  and  _288
REMARK  107  A    between atoms: _288  and  _289
REMARK  108  A    between atoms: _292  and  _294
REMARK  109  A    between atoms: _294  and  _295
REMARK  110  A    between atoms: _294  and  _297
REMARK  111  A    between atoms: _300  and  _302
REMARK  112  A    between atoms: _302  and  _303
REMARK  113  A    between atoms: _302  and  _305
REMARK  114  A    between atoms: _305  and  _306
REMARK  115  A    between atoms: _309  and  _311
REMARK  116  A    between atoms: _311  and  _312
REMARK  117  A    between atoms: _315  and  _317
REMARK  118  A    between atoms: _317  and  _318
REMARK  119  A    between atoms: _317  and  _320
REMARK  120  A    between atoms: _320  and  _321
REMARK  121  A    between atoms: _323  and  _325
REMARK  122  A    between atoms: _325  and  _326
REMARK  123  A    between atoms: _325  and  _328
REMARK  124  A    between atoms: _328  and  _329
REMARK  125  A    between atoms: _332  and  _334
REMARK  126  A    between atoms: _334  and  _335
REMARK  127  A    between atoms: _334  and  _337
REMARK  128  A    between atoms: _337  and  _338
REMARK  129  A    between atoms: _341  and  _343
REMARK  130  A    between atoms: _343  and  _344
REMARK  131  A    between atoms: _343  and  _346
REMARK  132  A    between atoms: _346  and  _347
REMARK  133  A    between atoms: _351  and  _352
REMARK  134  A    between atoms: _358  and  _359
REMARK  135  A    between atoms: _364  and  _366
REMARK  136  A    between atoms: _366  and  _367
REMARK  137  A    between atoms: _366  and  _369
REMARK  138  A    between atoms: _371  and  _373
REMARK  139  A    between atoms: _373  and  _374
REMARK  140  A    between atoms: _377  and  _379
REMARK  141  A    between atoms: _379  and  _380
REMARK  142  A    between atoms: _379  and  _382
REMARK  143  A    between atoms: _385  and  _387
REMARK  144  A    between atoms: _387  and  _388
REMARK  145  A    between atoms: _387  and  _390
REMARK  146  A    between atoms: _390  and  _391
REMARK  147  A    between atoms: _401  and  _403
REMARK  148  A    between atoms: _403  and  _404
REMARK  149  A    between atoms: _403  and  _406
REMARK  150  A    between atoms: _406  and  _407
REMARK  151  A    between atoms: _412  and  _414
REMARK  152  A    between atoms: _414  and  _415
REMARK  153  A    between atoms: _414  and  _417
REMARK  154  A    between atoms: _417  and  _418
REMARK  155  A    between atoms: _418  and  _419
REMARK  156  A    between atoms: _419  and  _420
REMARK                            x       y       z     vdW  Elec       q    Type
REMARK                         _______ _______ _______ _____ _____    ______ ____
ROOT
ATOM      1  CB  ASN A   1     -28.590 -11.599   7.079  0.00  0.00    +0.110 C 
ENDROOT
BRANCH   1   2
ATOM      2  CG  ASN A   1     -27.217 -10.973   7.353  0.00  0.00    +0.221 C 
ATOM      3  OD1 ASN A   1     -26.213 -11.660   7.539  0.00  0.00    -0.275 OA
ATOM      4  ND2 ASN A   1     -27.191  -9.650   7.420  0.00  0.00    -0.329 N 
ATOM      5 HD21 ASN A   1     -26.301  -9.158   7.636  0.00  0.00    +0.145 HD
ATOM      6 HD22 ASN A   1     -28.061  -9.104   7.257  0.00  0.00    +0.145 HD
ENDBRANCH   1   2
BRANCH   1   7
ATOM      7  CA  ASN A   1     -28.534 -12.915   6.310  0.00  0.00    +0.142 C 
BRANCH   7   8
ATOM      8  N   ASN A   1     -27.768 -13.929   7.014  0.00  0.00    -0.239 NA
ATOM      9  H   ASN A   1     -26.890 -13.649   7.495  0.00  0.00    +0.142 HD
ENDBRANCH   7   8
BRANCH   7  10
ATOM     10  C   ASN A   1     -27.994 -12.762   4.893  0.00  0.00    +0.225 C 
ATOM     11  O   ASN A   1     -27.471 -11.714   4.500  0.00  0.00    -0.287 OA
ENDBRANCH   7  10
ENDBRANCH   1   7
TORSDOF 4
REMARK  Name = ../refined-set-2016/5fl5/5fl5_pocket.pdb
REMARK  156 active torsions:
REMARK  status: ('A' for Active; 'I' for Inactive)
REMARK    1  A    between atoms: _1  and  _5
REMARK    2  A    between atoms: _5  and  _6
REMARK    3  A    between atoms: _5  and  _8
REMARK    4  A    between atoms: _8  and  _9
REMARK    5  A    between atoms: _19  and  _21
REMARK    6  A    between atoms: _21  and  _22
REMARK    7  A    between atoms: _21  and  _24
REMARK    8  A    between atoms: _24  and  _25
REMARK    9  A    between atoms: _30  and  _31
REMARK   10  A    between atoms: _33  and  _35
REMARK   11  A    between atoms: _35  and  _36
REMARK   12  A    between atoms: _35  and  _38
REMARK   13  A    between atoms: _38  and  _39
REMARK   14  A    between atoms: _42  and  _43
REMARK   15  A    between atoms: _48  and  _50
REMARK   16  A    between atoms: _50  and  _51
REMARK   17  A    between atoms: _50  and  _53
REMARK   18  A    between atoms: _53  and  _54
REMARK   19  A    between atoms: _59  and  _61
REMARK   20  A    between atoms: _61  and  _62
REMARK   21  A    between atoms: _61  and  _64
REMARK   22  A    between atoms: _64  and  _65
REMARK   23  A    between atoms: _67  and  _69
REMARK   24  A    between atoms: _69  and  _70
REMARK   25  A    between atoms: _69  and  _72
REMARK   26  A    between atoms: _72  and  _73
REMARK   27  A    between atoms: _73  and  _74
REMARK   28  A    between atoms: _79  and  _81
REMARK   29  A    between atoms: _81  and  _82
REMARK   30  A    between atoms: _81  and  _84
REMARK   31  A    between atoms: _84  and  _85
REMARK   32  A    between atoms: _88  and  _90
REMARK   33  A    between atoms: _90  and  _91
REMARK   34  A    between atoms: _90  and  _93
REMARK   35  A    between atoms: _93  and  _94
REMARK   36  A    between atoms: _94  and  _95
REMARK   37  A    between atoms: _100  and  _102
REMARK   38  A    between atoms: _102  and  _103
REMARK   39  A    between atoms: _102  and  _105
REMARK   40  A    between atoms: _105  and  _106
REMARK   41  A    between atoms: _109  and  _111
REMARK   42  A    between atoms: _122  and  _125
REMARK   43  A    between atoms: _125  and  _126
REMARK   44  A    between atoms: _131  and  _132
REMARK   45  A    between atoms: _140  and  _142
REMARK   46  A    between atoms: _142  and  _143
REMARK   47  A    between atoms: _142  and  _145
REMARK   48  A    between atoms: _145  and  _146
REMARK   49  A    between atoms: _146  and  _147
REMARK   50  A    between atoms: _150  and  _152
REMARK   51  A    between atoms: _152  and  _153
REMARK   52  A    between atoms: _152  and  _155
REMARK   53  A    between atoms: _155  and  _156
REMARK   54  A    between atoms: _161  and  _163
REMARK   55  A    between atoms: _163  and  _164
REMARK   56  A    between atoms: _163  and  _166
REMARK   57  A    between atoms: _166  and  _167
REMARK   58  A    between atoms: _167  and  _168
REMARK   59  A    between atoms: _171  and  _173
REMARK   60  A    between atoms: _173  and  _174
REMARK   61  A    between atoms: _173  and  _176
REMARK   62  A    between atoms: _176  and  _177
REMARK   63  A    between atoms: _180  and  _182
REMARK   64  A    between atoms: _182  and  _183
REMARK   65  A    between atoms: _182  and  _185
REMARK   66  A    between atoms: _185  and  _186
REMARK   67  A    between atoms: _187  and  ZN_429
REMARK   68  A    between atoms: _191  and  _193
REMARK   69  A    between atoms: _193  and  _194
REMARK   70  A    between atoms: _193  and  _196
REMARK   71  A    between atoms: _199  and  _201
REMARK   72  A    between atoms: _201  and  _202
REMARK   73  A    between atoms: _201  and  _204
REMARK   74  A    between atoms: _207  and  _209
REMARK   75  A    between atoms: _209  and  _210
REMARK   76  A    between atoms: _209  and  _212
REMARK   77  A    between atoms: _212  and  _213
REMARK   78  A    between atoms: _218  and  _220
REMARK   79  A    between atoms: _220  and  _221
REMARK   80  A    between atoms: _220  and  _223
REMARK   81  A    between atoms: _223  and  _224
REMARK   82  A    between atoms: _224  and  _225
REMARK   83  A    between atoms: _225  and  _226
REMARK   84  A    between atoms: _235  and  _237
REMARK   85  A    between atoms: _237  and  _238
REMARK   86  A    between atoms: _237  and  _240
REMARK   87  A    between atoms: _243  and  _245
REMARK   88  A    between atoms: _245  and  _246
REMARK   89  A    between atoms: _245  and  _248
REMARK   90  A    between atoms: _248  and  _249
REMARK   91  A    between atoms: _252  and  _254
REMARK   92  A    between atoms: _254  and  _255
REMARK   93  A    between atoms: _254  and  _257
REMARK   94  A    between atoms: _257  and  _258
REMARK   95  A    between atoms: _258  and  _259
REMARK   96  A    between atoms: _262  and  _264
REMARK   97  A    between atoms: _264  and  _265
REMARK   98  A    between atoms: _268  and  _270
REMARK   99  A    between atoms: _270  and  _271
REMARK  100  A    between atoms: _270  and  _273
REMARK  101  A    between atoms: _273  and  _274
REMARK  102  A    between atoms: _277  and  _279
REMARK  103  A    between atoms: _279  and  _280
REMARK  104  A    between atoms: _279  and  _282
REMARK  105  A    between atoms: _282  and  _283
REMARK  106  A    between atoms: _286  and  _288
REMARK  107  A    between atoms: _288  and  _289
REMARK  108  A    between atoms: _292  and  _294
REMARK  109  A    between atoms: _294  and  _295
REMARK  110  A    between atoms: _294  and  _297
REMARK  111  A    between atoms: _300  and  _302
REMARK  112  A    between atoms: _302  and  _303
REMARK  113  A    between atoms: _302  and  _305
REMARK  114  A    between atoms: _305  and  _306
REMARK  115  A    between atoms: _309  and  _311
REMARK  116  A    between atoms: _311  and  _312
REMARK  117  A    between atoms: _315  and  _317
REMARK  118  A    between atoms: _317  and  _318
REMARK  119  A    between atoms: _317  and  _320
REMARK  120  A    between atoms: _320  and  _321
REMARK  121  A    between atoms: _323  and  _325
REMARK  122  A    between atoms: _325  and  _326
REMARK  123  A    between atoms: _325  and  _328
REMARK  124  A    between atoms: _328  and  _329
REMARK  125  A    between atoms: _332  and  _334
REMARK  126  A    between atoms: _334  and  _335
REMARK  127  A    between atoms: _334  and  _337
REMARK  128  A    between atoms: _337  and  _338
REMARK  129  A    between atoms: _341  and  _343
REMARK  130  A    between atoms: _343  and  _344
REMARK  131  A    between atoms: _343  and  _346
REMARK  132  A    between atoms: _346  and  _347
REMARK  133  A    between atoms: _351  and  _352
REMARK  134  A    between atoms: _358  and  _359
REMARK  135  A    between atoms: _364  and  _366
REMARK  136  A    between atoms: _366  and  _367
REMARK  137  A    between atoms: _366  and  _369
REMARK  138  A    between atoms: _371  and  _373
REMARK  139  A    between atoms: _373  and  _374
REMARK  140  A    between atoms: _377  and  _379
REMARK  141  A    between atoms: _379  and  _380
REMARK  142  A    between atoms: _379  and  _382
REMARK  143  A    between atoms: _385  and  _387
REMARK  144  A    between atoms: _387  and  _388
REMARK  145  A    between atoms: _387  and  _390
REMARK  146  A    between atoms: _390  and  _391
REMARK  147  A    between atoms: _401  and  _403
REMARK  148  A    between atoms: _403  and  _404
REMARK  149  A    between atoms: _403  and  _406
REMARK  150  A    between atoms: _406  and  _407
REMARK  151  A    between atoms: _412  and  _414
REMARK  152  A    between atoms: _414  and  _415
REMARK  153  A    between atoms: _414  and  _417
REMARK  154  A    between atoms: _417  and  _418
REMARK  155  A    between atoms: _418  and  _419
REMARK  156  A    between atoms: _419  and  _420
REMARK                            x       y       z     vdW  Elec       q    Type
REMARK                         _______ _______ _______ _____ _____    ______ ____
ROOT
ATOM      1  NE  ARG A   1     -32.469 -13.311  -4.338  0.00  0.00    -0.265 N 
ATOM      2  HE  ARG A   1     -33.125 -14.057  -4.029  0.00  0.00    +0.259 HD
ATOM      3  CZ  ARG A   1     -32.819 -12.576  -5.381  0.00  0.00    +0.342 C 
ATOM      4  NH2 ARG A   1     -32.013 -11.623  -5.832  0.00  0.00    -0.292 N 
ATOM      5 HH21 ARG A   1     -31.100 -11.450  -5.365  0.00  0.00    +0.255 HD
ATOM      6 HH22 ARG A   1     -32.294 -11.049  -6.652  0.00  0.00    +0.255 HD
ATOM      7  NH1 ARG A   1     -33.981 -12.798  -6.004  0.00  0.00    -0.292 N 
ATOM      8 HH11 ARG A   1     -34.615 -13.552  -5.669  0.00  0.00    +0.255 HD
ATOM      9 HH12 ARG A   1     -34.251 -12.217  -6.823  0.00  0.00    +0.255 HD
ENDROOT
BRANCH   1  10
ATOM     10  CD  ARG A   1     -31.216 -13.145  -3.586  0.00  0.00    +0.174 C 
BRANCH  10  11
ATOM     11  CG  ARG A   1     -31.091 -14.119  -2.433  0.00  0.00    +0.045 C 
BRANCH  11  12
ATOM     12  CB  ARG A   1     -29.977 -13.689  -1.484  0.00  0.00    +0.029 C 
BRANCH  12  13
ATOM     13  CA  ARG A   1     -29.721 -14.662  -0.350  0.00  0.00    +0.133 C 
BRANCH  13  14
ATOM     14  N   ARG A   1     -28.808 -14.080   0.628  0.00  0.00    -0.239 NA
ATOM     15  H   ARG A   1     -28.185 -13.304   0.328  0.00  0.00    +0.142 HD
ENDBRANCH  13  14
BRANCH  13  16
ATOM     16  C   ARG A   1     -29.102 -15.915  -0.918  0.00  0.00    +0.224 C 
ATOM     17  O   ARG A   1     -27.873 -15.998  -1.056  0.00  0.00    -0.287 OA
ENDBRANCH  13  16
ENDBRANCH  12  13
ENDBRANCH  11  12
ENDBRANCH  10  11
ENDBRANCH   1  10
TORSDOF 6
REMARK  Name = ../refined-set-2016/5fl5/5fl5_pocket.pdb
REMARK  156 active torsions:
REMARK  status: ('A' for Active; 'I' for Inactive)
REMARK    1  A    between atoms: _1  and  _5
REMARK    2  A    between atoms: _5  and  _6
REMARK    3  A    between atoms: _5  and  _8
REMARK    4  A    between atoms: _8  and  _9
REMARK    5  A    between atoms: _19  and  _21
REMARK    6  A    between atoms: _21  and  _22
REMARK    7  A    between atoms: _21  and  _24
REMARK    8  A    between atoms: _24  and  _25
REMARK    9  A    between atoms: _30  and  _31
REMARK   10  A    between atoms: _33  and  _35
REMARK   11  A    between atoms: _35  and  _36
REMARK   12  A    between atoms: _35  and  _38
REMARK   13  A    between atoms: _38  and  _39
REMARK   14  A    between atoms: _42  and  _43
REMARK   15  A    between atoms: _48  and  _50
REMARK   16  A    between atoms: _50  and  _51
REMARK   17  A    between atoms: _50  and  _53
REMARK   18  A    between atoms: _53  and  _54
REMARK   19  A    between atoms: _59  and  _61
REMARK   20  A    between atoms: _61  and  _62
REMARK   21  A    between atoms: _61  and  _64
REMARK   22  A    between atoms: _64  and  _65
REMARK   23  A    between atoms: _67  and  _69
REMARK   24  A    between atoms: _69  and  _70
REMARK   25  A    between atoms: _69  and  _72
REMARK   26  A    between atoms: _72  and  _73
REMARK   27  A    between atoms: _73  and  _74
REMARK   28  A    between atoms: _79  and  _81
REMARK   29  A    between atoms: _81  and  _82
REMARK   30  A    between atoms: _81  and  _84
REMARK   31  A    between atoms: _84  and  _85
REMARK   32  A    between atoms: _88  and  _90
REMARK   33  A    between atoms: _90  and  _91
REMARK   34  A    between atoms: _90  and  _93
REMARK   35  A    between atoms: _93  and  _94
REMARK   36  A    between atoms: _94  and  _95
REMARK   37  A    between atoms: _100  and  _102
REMARK   38  A    between atoms: _102  and  _103
REMARK   39  A    between atoms: _102  and  _105
REMARK   40  A    between atoms: _105  and  _106
REMARK   41  A    between atoms: _109  and  _111
REMARK   42  A    between atoms: _122  and  _125
REMARK   43  A    between atoms: _125  and  _126
REMARK   44  A    between atoms: _131  and  _132
REMARK   45  A    between atoms: _140  and  _142
REMARK   46  A    between atoms: _142  and  _143
REMARK   47  A    between atoms: _142  and  _145
REMARK   48  A    between atoms: _145  and  _146
REMARK   49  A    between atoms: _146  and  _147
REMARK   50  A    between atoms: _150  and  _152
REMARK   51  A    between atoms: _152  and  _153
REMARK   52  A    between atoms: _152  and  _155
REMARK   53  A    between atoms: _155  and  _156
REMARK   54  A    between atoms: _161  and  _163
REMARK   55  A    between atoms: _163  and  _164
REMARK   56  A    between atoms: _163  and  _166
REMARK   57  A    between atoms: _166  and  _167
REMARK   58  A    between atoms: _167  and  _168
REMARK   59  A    between atoms: _171  and  _173
REMARK   60  A    between atoms: _173  and  _174
REMARK   61  A    between atoms: _173  and  _176
REMARK   62  A    between atoms: _176  and  _177
REMARK   63  A    between atoms: _180  and  _182
REMARK   64  A    between atoms: _182  and  _183
REMARK   65  A    between atoms: _182  and  _185
REMARK   66  A    between atoms: _185  and  _186
REMARK   67  A    between atoms: _187  and  ZN_429
REMARK   68  A    between atoms: _191  and  _193
REMARK   69  A    between atoms: _193  and  _194
REMARK   70  A    between atoms: _193  and  _196
REMARK   71  A    between atoms: _199  and  _201
REMARK   72  A    between atoms: _201  and  _202
REMARK   73  A    between atoms: _201  and  _204
REMARK   74  A    between atoms: _207  and  _209
REMARK   75  A    between atoms: _209  and  _210
REMARK   76  A    between atoms: _209  and  _212
REMARK   77  A    between atoms: _212  and  _213
REMARK   78  A    between atoms: _218  and  _220
REMARK   79  A    between atoms: _220  and  _221
REMARK   80  A    between atoms: _220  and  _223
REMARK   81  A    between atoms: _223  and  _224
REMARK   82  A    between atoms: _224  and  _225
REMARK   83  A    between atoms: _225  and  _226
REMARK   84  A    between atoms: _235  and  _237
REMARK   85  A    between atoms: _237  and  _238
REMARK   86  A    between atoms: _237  and  _240
REMARK   87  A    between atoms: _243  and  _245
REMARK   88  A    between atoms: _245  and  _246
REMARK   89  A    between atoms: _245  and  _248
REMARK   90  A    between atoms: _248  and  _249
REMARK   91  A    between atoms: _252  and  _254
REMARK   92  A    between atoms: _254  and  _255
REMARK   93  A    between atoms: _254  and  _257
REMARK   94  A    between atoms: _257  and  _258
REMARK   95  A    between atoms: _258  and  _259
REMARK   96  A    between atoms: _262  and  _264
REMARK   97  A    between atoms: _264  and  _265
REMARK   98  A    between atoms: _268  and  _270
REMARK   99  A    between atoms: _270  and  _271
REMARK  100  A    between atoms: _270  and  _273
REMARK  101  A    between atoms: _273  and  _274
REMARK  102  A    between atoms: _277  and  _279
REMARK  103  A    between atoms: _279  and  _280
REMARK  104  A    between atoms: _279  and  _282
REMARK  105  A    between atoms: _282  and  _283
REMARK  106  A    between atoms: _286  and  _288
REMARK  107  A    between atoms: _288  and  _289
REMARK  108  A    between atoms: _292  and  _294
REMARK  109  A    between atoms: _294  and  _295
REMARK  110  A    between atoms: _294  and  _297
REMARK  111  A    between atoms: _300  and  _302
REMARK  112  A    between atoms: _302  and  _303
REMARK  113  A    between atoms: _302  and  _305
REMARK  114  A    between atoms: _305  and  _306
REMARK  115  A    between atoms: _309  and  _311
REMARK  116  A    between atoms: _311  and  _312
REMARK  117  A    between atoms: _315  and  _317
REMARK  118  A    between atoms: _317  and  _318
REMARK  119  A    between atoms: _317  and  _320
REMARK  120  A    between atoms: _320  and  _321
REMARK  121  A    between atoms: _323  and  _325
REMARK  122  A    between atoms: _325  and  _326
REMARK  123  A    between atoms: _325  and  _328
REMARK  124  A    between atoms: _328  and  _329
REMARK  125  A    between atoms: _332  and  _334
REMARK  126  A    between atoms: _334  and  _335
REMARK  127  A    between atoms: _334  and  _337
REMARK  128  A    between atoms: _337  and  _338
REMARK  129  A    between atoms: _341  and  _343
REMARK  130  A    between atoms: _343  and  _344
REMARK  131  A    between atoms: _343  and  _346
REMARK  132  A    between atoms: _346  and  _347
REMARK  133  A    between atoms: _351  and  _352
REMARK  134  A    between atoms: _358  and  _359
REMARK  135  A    between atoms: _364  and  _366
REMARK  136  A    between atoms: _366  and  _367
REMARK  137  A    between atoms: _366  and  _369
REMARK  138  A    between atoms: _371  and  _373
REMARK  139  A    between atoms: _373  and  _374
REMARK  140  A    between atoms: _377  and  _379
REMARK  141  A    between atoms: _379  and  _380
REMARK  142  A    between atoms: _379  and  _382
REMARK  143  A    between atoms: _385  and  _387
REMARK  144  A    between atoms: _387  and  _388
REMARK  145  A    between atoms: _387  and  _390
REMARK  146  A    between atoms: _390  and  _391
REMARK  147  A    between atoms: _401  and  _403
REMARK  148  A    between atoms: _403  and  _404
REMARK  149  A    between atoms: _403  and  _406
REMARK  150  A    between atoms: _406  and  _407
REMARK  151  A    between atoms: _412  and  _414
REMARK  152  A    between atoms: _414  and  _415
REMARK  153  A    between atoms: _414  and  _417
REMARK  154  A    between atoms: _417  and  _418
REMARK  155  A    between atoms: _418  and  _419
REMARK  156  A    between atoms: _419  and  _420
REMARK                            x       y       z     vdW  Elec       q    Type
REMARK                         _______ _______ _______ _____ _____    ______ ____
ROOT
ATOM      1  O   HOH     1     -29.462 -10.650   0.611  0.00  0.00    +0.000 OA
ENDROOT
TORSDOF 0
REMARK  Name = ../refined-set-2016/5fl5/5fl5_pocket.pdb
REMARK  156 active torsions:
REMARK  status: ('A' for Active; 'I' for Inactive)
REMARK    1  A    between atoms: _1  and  _5
REMARK    2  A    between atoms: _5  and  _6
REMARK    3  A    between atoms: _5  and  _8
REMARK    4  A    between atoms: _8  and  _9
REMARK    5  A    between atoms: _19  and  _21
REMARK    6  A    between atoms: _21  and  _22
REMARK    7  A    between atoms: _21  and  _24
REMARK    8  A    between atoms: _24  and  _25
REMARK    9  A    between atoms: _30  and  _31
REMARK   10  A    between atoms: _33  and  _35
REMARK   11  A    between atoms: _35  and  _36
REMARK   12  A    between atoms: _35  and  _38
REMARK   13  A    between atoms: _38  and  _39
REMARK   14  A    between atoms: _42  and  _43
REMARK   15  A    between atoms: _48  and  _50
REMARK   16  A    between atoms: _50  and  _51
REMARK   17  A    between atoms: _50  and  _53
REMARK   18  A    between atoms: _53  and  _54
REMARK   19  A    between atoms: _59  and  _61
REMARK   20  A    between atoms: _61  and  _62
REMARK   21  A    between atoms: _61  and  _64
REMARK   22  A    between atoms: _64  and  _65
REMARK   23  A    between atoms: _67  and  _69
REMARK   24  A    between atoms: _69  and  _70
REMARK   25  A    between atoms: _69  and  _72
REMARK   26  A    between atoms: _72  and  _73
REMARK   27  A    between atoms: _73  and  _74
REMARK   28  A    between atoms: _79  and  _81
REMARK   29  A    between atoms: _81  and  _82
REMARK   30  A    between atoms: _81  and  _84
REMARK   31  A    between atoms: _84  and  _85
REMARK   32  A    between atoms: _88  and  _90
REMARK   33  A    between atoms: _90  and  _91
REMARK   34  A    between atoms: _90  and  _93
REMARK   35  A    between atoms: _93  and  _94
REMARK   36  A    between atoms: _94  and  _95
REMARK   37  A    between atoms: _100  and  _102
REMARK   38  A    between atoms: _102  and  _103
REMARK   39  A    between atoms: _102  and  _105
REMARK   40  A    between atoms: _105  and  _106
REMARK   41  A    between atoms: _109  and  _111
REMARK   42  A    between atoms: _122  and  _125
REMARK   43  A    between atoms: _125  and  _126
REMARK   44  A    between atoms: _131  and  _132
REMARK   45  A    between atoms: _140  and  _142
REMARK   46  A    between atoms: _142  and  _143
REMARK   47  A    between atoms: _142  and  _145
REMARK   48  A    between atoms: _145  and  _146
REMARK   49  A    between atoms: _146  and  _147
REMARK   50  A    between atoms: _150  and  _152
REMARK   51  A    between atoms: _152  and  _153
REMARK   52  A    between atoms: _152  and  _155
REMARK   53  A    between atoms: _155  and  _156
REMARK   54  A    between atoms: _161  and  _163
REMARK   55  A    between atoms: _163  and  _164
REMARK   56  A    between atoms: _163  and  _166
REMARK   57  A    between atoms: _166  and  _167
REMARK   58  A    between atoms: _167  and  _168
REMARK   59  A    between atoms: _171  and  _173
REMARK   60  A    between atoms: _173  and  _174
REMARK   61  A    between atoms: _173  and  _176
REMARK   62  A    between atoms: _176  and  _177
REMARK   63  A    between atoms: _180  and  _182
REMARK   64  A    between atoms: _182  and  _183
REMARK   65  A    between atoms: _182  and  _185
REMARK   66  A    between atoms: _185  and  _186
REMARK   67  A    between atoms: _187  and  ZN_429
REMARK   68  A    between atoms: _191  and  _193
REMARK   69  A    between atoms: _193  and  _194
REMARK   70  A    between atoms: _193  and  _196
REMARK   71  A    between atoms: _199  and  _201
REMARK   72  A    between atoms: _201  and  _202
REMARK   73  A    between atoms: _201  and  _204
REMARK   74  A    between atoms: _207  and  _209
REMARK   75  A    between atoms: _209  and  _210
REMARK   76  A    between atoms: _209  and  _212
REMARK   77  A    between atoms: _212  and  _213
REMARK   78  A    between atoms: _218  and  _220
REMARK   79  A    between atoms: _220  and  _221
REMARK   80  A    between atoms: _220  and  _223
REMARK   81  A    between atoms: _223  and  _224
REMARK   82  A    between atoms: _224  and  _225
REMARK   83  A    between atoms: _225  and  _226
REMARK   84  A    between atoms: _235  and  _237
REMARK   85  A    between atoms: _237  and  _238
REMARK   86  A    between atoms: _237  and  _240
REMARK   87  A    between atoms: _243  and  _245
REMARK   88  A    between atoms: _245  and  _246
REMARK   89  A    between atoms: _245  and  _248
REMARK   90  A    between atoms: _248  and  _249
REMARK   91  A    between atoms: _252  and  _254
REMARK   92  A    between atoms: _254  and  _255
REMARK   93  A    between atoms: _254  and  _257
REMARK   94  A    between atoms: _257  and  _258
REMARK   95  A    between atoms: _258  and  _259
REMARK   96  A    between atoms: _262  and  _264
REMARK   97  A    between atoms: _264  and  _265
REMARK   98  A    between atoms: _268  and  _270
REMARK   99  A    between atoms: _270  and  _271
REMARK  100  A    between atoms: _270  and  _273
REMARK  101  A    between atoms: _273  and  _274
REMARK  102  A    between atoms: _277  and  _279
REMARK  103  A    between atoms: _279  and  _280
REMARK  104  A    between atoms: _279  and  _282
REMARK  105  A    between atoms: _282  and  _283
REMARK  106  A    between atoms: _286  and  _288
REMARK  107  A    between atoms: _288  and  _289
REMARK  108  A    between atoms: _292  and  _294
REMARK  109  A    between atoms: _294  and  _295
REMARK  110  A    between atoms: _294  and  _297
REMARK  111  A    between atoms: _300  and  _302
REMARK  112  A    between atoms: _302  and  _303
REMARK  113  A    between atoms: _302  and  _305
REMARK  114  A    between atoms: _305  and  _306
REMARK  115  A    between atoms: _309  and  _311
REMARK  116  A    between atoms: _311  and  _312
REMARK  117  A    between atoms: _315  and  _317
REMARK  118  A    between atoms: _317  and  _318
REMARK  119  A    between atoms: _317  and  _320
REMARK  120  A    between atoms: _320  and  _321
REMARK  121  A    between atoms: _323  and  _325
REMARK  122  A    between atoms: _325  and  _326
REMARK  123  A    between atoms: _325  and  _328
REMARK  124  A    between atoms: _328  and  _329
REMARK  125  A    between atoms: _332  and  _334
REMARK  126  A    between atoms: _334  and  _335
REMARK  127  A    between atoms: _334  and  _337
REMARK  128  A    between atoms: _337  and  _338
REMARK  129  A    between atoms: _341  and  _343
REMARK  130  A    between atoms: _343  and  _344
REMARK  131  A    between atoms: _343  and  _346
REMARK  132  A    between atoms: _346  and  _347
REMARK  133  A    between atoms: _351  and  _352
REMARK  134  A    between atoms: _358  and  _359
REMARK  135  A    between atoms: _364  and  _366
REMARK  136  A    between atoms: _366  and  _367
REMARK  137  A    between atoms: _366  and  _369
REMARK  138  A    between atoms: _371  and  _373
REMARK  139  A    between atoms: _373  and  _374
REMARK  140  A    between atoms: _377  and  _379
REMARK  141  A    between atoms: _379  and  _380
REMARK  142  A    between atoms: _379  and  _382
REMARK  143  A    between atoms: _385  and  _387
REMARK  144  A    between atoms: _387  and  _388
REMARK  145  A    between atoms: _387  and  _390
REMARK  146  A    between atoms: _390  and  _391
REMARK  147  A    between atoms: _401  and  _403
REMARK  148  A    between atoms: _403  and  _404
REMARK  149  A    between atoms: _403  and  _406
REMARK  150  A    between atoms: _406  and  _407
REMARK  151  A    between atoms: _412  and  _414
REMARK  152  A    between atoms: _414  and  _415
REMARK  153  A    between atoms: _414  and  _417
REMARK  154  A    between atoms: _417  and  _418
REMARK  155  A    between atoms: _418  and  _419
REMARK  156  A    between atoms: _419  and  _420
REMARK                            x       y       z     vdW  Elec       q    Type
REMARK                         _______ _______ _______ _____ _____    ______ ____
ROOT
ATOM      1  O   HOH     1     -29.656  -7.919   4.122  0.00  0.00    +0.000 OA
ENDROOT
TORSDOF 0
REMARK  Name = ../refined-set-2016/5fl5/5fl5_pocket.pdb
REMARK  156 active torsions:
REMARK  status: ('A' for Active; 'I' for Inactive)
REMARK    1  A    between atoms: _1  and  _5
REMARK    2  A    between atoms: _5  and  _6
REMARK    3  A    between atoms: _5  and  _8
REMARK    4  A    between atoms: _8  and  _9
REMARK    5  A    between atoms: _19  and  _21
REMARK    6  A    between atoms: _21  and  _22
REMARK    7  A    between atoms: _21  and  _24
REMARK    8  A    between atoms: _24  and  _25
REMARK    9  A    between atoms: _30  and  _31
REMARK   10  A    between atoms: _33  and  _35
REMARK   11  A    between atoms: _35  and  _36
REMARK   12  A    between atoms: _35  and  _38
REMARK   13  A    between atoms: _38  and  _39
REMARK   14  A    between atoms: _42  and  _43
REMARK   15  A    between atoms: _48  and  _50
REMARK   16  A    between atoms: _50  and  _51
REMARK   17  A    between atoms: _50  and  _53
REMARK   18  A    between atoms: _53  and  _54
REMARK   19  A    between atoms: _59  and  _61
REMARK   20  A    between atoms: _61  and  _62
REMARK   21  A    between atoms: _61  and  _64
REMARK   22  A    between atoms: _64  and  _65
REMARK   23  A    between atoms: _67  and  _69
REMARK   24  A    between atoms: _69  and  _70
REMARK   25  A    between atoms: _69  and  _72
REMARK   26  A    between atoms: _72  and  _73
REMARK   27  A    between atoms: _73  and  _74
REMARK   28  A    between atoms: _79  and  _81
REMARK   29  A    between atoms: _81  and  _82
REMARK   30  A    between atoms: _81  and  _84
REMARK   31  A    between atoms: _84  and  _85
REMARK   32  A    between atoms: _88  and  _90
REMARK   33  A    between atoms: _90  and  _91
REMARK   34  A    between atoms: _90  and  _93
REMARK   35  A    between atoms: _93  and  _94
REMARK   36  A    between atoms: _94  and  _95
REMARK   37  A    between atoms: _100  and  _102
REMARK   38  A    between atoms: _102  and  _103
REMARK   39  A    between atoms: _102  and  _105
REMARK   40  A    between atoms: _105  and  _106
REMARK   41  A    between atoms: _109  and  _111
REMARK   42  A    between atoms: _122  and  _125
REMARK   43  A    between atoms: _125  and  _126
REMARK   44  A    between atoms: _131  and  _132
REMARK   45  A    between atoms: _140  and  _142
REMARK   46  A    between atoms: _142  and  _143
REMARK   47  A    between atoms: _142  and  _145
REMARK   48  A    between atoms: _145  and  _146
REMARK   49  A    between atoms: _146  and  _147
REMARK   50  A    between atoms: _150  and  _152
REMARK   51  A    between atoms: _152  and  _153
REMARK   52  A    between atoms: _152  and  _155
REMARK   53  A    between atoms: _155  and  _156
REMARK   54  A    between atoms: _161  and  _163
REMARK   55  A    between atoms: _163  and  _164
REMARK   56  A    between atoms: _163  and  _166
REMARK   57  A    between atoms: _166  and  _167
REMARK   58  A    between atoms: _167  and  _168
REMARK   59  A    between atoms: _171  and  _173
REMARK   60  A    between atoms: _173  and  _174
REMARK   61  A    between atoms: _173  and  _176
REMARK   62  A    between atoms: _176  and  _177
REMARK   63  A    between atoms: _180  and  _182
REMARK   64  A    between atoms: _182  and  _183
REMARK   65  A    between atoms: _182  and  _185
REMARK   66  A    between atoms: _185  and  _186
REMARK   67  A    between atoms: _187  and  ZN_429
REMARK   68  A    between atoms: _191  and  _193
REMARK   69  A    between atoms: _193  and  _194
REMARK   70  A    between atoms: _193  and  _196
REMARK   71  A    between atoms: _199  and  _201
REMARK   72  A    between atoms: _201  and  _202
REMARK   73  A    between atoms: _201  and  _204
REMARK   74  A    between atoms: _207  and  _209
REMARK   75  A    between atoms: _209  and  _210
REMARK   76  A    between atoms: _209  and  _212
REMARK   77  A    between atoms: _212  and  _213
REMARK   78  A    between atoms: _218  and  _220
REMARK   79  A    between atoms: _220  and  _221
REMARK   80  A    between atoms: _220  and  _223
REMARK   81  A    between atoms: _223  and  _224
REMARK   82  A    between atoms: _224  and  _225
REMARK   83  A    between atoms: _225  and  _226
REMARK   84  A    between atoms: _235  and  _237
REMARK   85  A    between atoms: _237  and  _238
REMARK   86  A    between atoms: _237  and  _240
REMARK   87  A    between atoms: _243  and  _245
REMARK   88  A    between atoms: _245  and  _246
REMARK   89  A    between atoms: _245  and  _248
REMARK   90  A    between atoms: _248  and  _249
REMARK   91  A    between atoms: _252  and  _254
REMARK   92  A    between atoms: _254  and  _255
REMARK   93  A    between atoms: _254  and  _257
REMARK   94  A    between atoms: _257  and  _258
REMARK   95  A    between atoms: _258  and  _259
REMARK   96  A    between atoms: _262  and  _264
REMARK   97  A    between atoms: _264  and  _265
REMARK   98  A    between atoms: _268  and  _270
REMARK   99  A    between atoms: _270  and  _271
REMARK  100  A    between atoms: _270  and  _273
REMARK  101  A    between atoms: _273  and  _274
REMARK  102  A    between atoms: _277  and  _279
REMARK  103  A    between atoms: _279  and  _280
REMARK  104  A    between atoms: _279  and  _282
REMARK  105  A    between atoms: _282  and  _283
REMARK  106  A    between atoms: _286  and  _288
REMARK  107  A    between atoms: _288  and  _289
REMARK  108  A    between atoms: _292  and  _294
REMARK  109  A    between atoms: _294  and  _295
REMARK  110  A    between atoms: _294  and  _297
REMARK  111  A    between atoms: _300  and  _302
REMARK  112  A    between atoms: _302  and  _303
REMARK  113  A    between atoms: _302  and  _305
REMARK  114  A    between atoms: _305  and  _306
REMARK  115  A    between atoms: _309  and  _311
REMARK  116  A    between atoms: _311  and  _312
REMARK  117  A    between atoms: _315  and  _317
REMARK  118  A    between atoms: _317  and  _318
REMARK  119  A    between atoms: _317  and  _320
REMARK  120  A    between atoms: _320  and  _321
REMARK  121  A    between atoms: _323  and  _325
REMARK  122  A    between atoms: _325  and  _326
REMARK  123  A    between atoms: _325  and  _328
REMARK  124  A    between atoms: _328  and  _329
REMARK  125  A    between atoms: _332  and  _334
REMARK  126  A    between atoms: _334  and  _335
REMARK  127  A    between atoms: _334  and  _337
REMARK  128  A    between atoms: _337  and  _338
REMARK  129  A    between atoms: _341  and  _343
REMARK  130  A    between atoms: _343  and  _344
REMARK  131  A    between atoms: _343  and  _346
REMARK  132  A    between atoms: _346  and  _347
REMARK  133  A    between atoms: _351  and  _352
REMARK  134  A    between atoms: _358  and  _359
REMARK  135  A    between atoms: _364  and  _366
REMARK  136  A    between atoms: _366  and  _367
REMARK  137  A    between atoms: _366  and  _369
REMARK  138  A    between atoms: _371  and  _373
REMARK  139  A    between atoms: _373  and  _374
REMARK  140  A    between atoms: _377  and  _379
REMARK  141  A    between atoms: _379  and  _380
REMARK  142  A    between atoms: _379  and  _382
REMARK  143  A    between atoms: _385  and  _387
REMARK  144  A    between atoms: _387  and  _388
REMARK  145  A    between atoms: _387  and  _390
REMARK  146  A    between atoms: _390  and  _391
REMARK  147  A    between atoms: _401  and  _403
REMARK  148  A    between atoms: _403  and  _404
REMARK  149  A    between atoms: _403  and  _406
REMARK  150  A    between atoms: _406  and  _407
REMARK  151  A    between atoms: _412  and  _414
REMARK  152  A    between atoms: _414  and  _415
REMARK  153  A    between atoms: _414  and  _417
REMARK  154  A    between atoms: _417  and  _418
REMARK  155  A    between atoms: _418  and  _419
REMARK  156  A    between atoms: _419  and  _420
REMARK                            x       y       z     vdW  Elec       q    Type
REMARK                         _______ _______ _______ _____ _____    ______ ____
ROOT
ATOM      1  O   HOH     1     -33.393   9.536  -2.093  0.00  0.00    +0.000 OA
ENDROOT
TORSDOF 0
REMARK  Name = ../refined-set-2016/5fl5/5fl5_pocket.pdb
REMARK  156 active torsions:
REMARK  status: ('A' for Active; 'I' for Inactive)
REMARK    1  A    between atoms: _1  and  _5
REMARK    2  A    between atoms: _5  and  _6
REMARK    3  A    between atoms: _5  and  _8
REMARK    4  A    between atoms: _8  and  _9
REMARK    5  A    between atoms: _19  and  _21
REMARK    6  A    between atoms: _21  and  _22
REMARK    7  A    between atoms: _21  and  _24
REMARK    8  A    between atoms: _24  and  _25
REMARK    9  A    between atoms: _30  and  _31
REMARK   10  A    between atoms: _33  and  _35
REMARK   11  A    between atoms: _35  and  _36
REMARK   12  A    between atoms: _35  and  _38
REMARK   13  A    between atoms: _38  and  _39
REMARK   14  A    between atoms: _42  and  _43
REMARK   15  A    between atoms: _48  and  _50
REMARK   16  A    between atoms: _50  and  _51
REMARK   17  A    between atoms: _50  and  _53
REMARK   18  A    between atoms: _53  and  _54
REMARK   19  A    between atoms: _59  and  _61
REMARK   20  A    between atoms: _61  and  _62
REMARK   21  A    between atoms: _61  and  _64
REMARK   22  A    between atoms: _64  and  _65
REMARK   23  A    between atoms: _67  and  _69
REMARK   24  A    between atoms: _69  and  _70
REMARK   25  A    between atoms: _69  and  _72
REMARK   26  A    between atoms: _72  and  _73
REMARK   27  A    between atoms: _73  and  _74
REMARK   28  A    between atoms: _79  and  _81
REMARK   29  A    between atoms: _81  and  _82
REMARK   30  A    between atoms: _81  and  _84
REMARK   31  A    between atoms: _84  and  _85
REMARK   32  A    between atoms: _88  and  _90
REMARK   33  A    between atoms: _90  and  _91
REMARK   34  A    between atoms: _90  and  _93
REMARK   35  A    between atoms: _93  and  _94
REMARK   36  A    between atoms: _94  and  _95
REMARK   37  A    between atoms: _100  and  _102
REMARK   38  A    between atoms: _102  and  _103
REMARK   39  A    between atoms: _102  and  _105
REMARK   40  A    between atoms: _105  and  _106
REMARK   41  A    between atoms: _109  and  _111
REMARK   42  A    between atoms: _122  and  _125
REMARK   43  A    between atoms: _125  and  _126
REMARK   44  A    between atoms: _131  and  _132
REMARK   45  A    between atoms: _140  and  _142
REMARK   46  A    between atoms: _142  and  _143
REMARK   47  A    between atoms: _142  and  _145
REMARK   48  A    between atoms: _145  and  _146
REMARK   49  A    between atoms: _146  and  _147
REMARK   50  A    between atoms: _150  and  _152
REMARK   51  A    between atoms: _152  and  _153
REMARK   52  A    between atoms: _152  and  _155
REMARK   53  A    between atoms: _155  and  _156
REMARK   54  A    between atoms: _161  and  _163
REMARK   55  A    between atoms: _163  and  _164
REMARK   56  A    between atoms: _163  and  _166
REMARK   57  A    between atoms: _166  and  _167
REMARK   58  A    between atoms: _167  and  _168
REMARK   59  A    between atoms: _171  and  _173
REMARK   60  A    between atoms: _173  and  _174
REMARK   61  A    between atoms: _173  and  _176
REMARK   62  A    between atoms: _176  and  _177
REMARK   63  A    between atoms: _180  and  _182
REMARK   64  A    between atoms: _182  and  _183
REMARK   65  A    between atoms: _182  and  _185
REMARK   66  A    between atoms: _185  and  _186
REMARK   67  A    between atoms: _187  and  ZN_429
REMARK   68  A    between atoms: _191  and  _193
REMARK   69  A    between atoms: _193  and  _194
REMARK   70  A    between atoms: _193  and  _196
REMARK   71  A    between atoms: _199  and  _201
REMARK   72  A    between atoms: _201  and  _202
REMARK   73  A    between atoms: _201  and  _204
REMARK   74  A    between atoms: _207  and  _209
REMARK   75  A    between atoms: _209  and  _210
REMARK   76  A    between atoms: _209  and  _212
REMARK   77  A    between atoms: _212  and  _213
REMARK   78  A    between atoms: _218  and  _220
REMARK   79  A    between atoms: _220  and  _221
REMARK   80  A    between atoms: _220  and  _223
REMARK   81  A    between atoms: _223  and  _224
REMARK   82  A    between atoms: _224  and  _225
REMARK   83  A    between atoms: _225  and  _226
REMARK   84  A    between atoms: _235  and  _237
REMARK   85  A    between atoms: _237  and  _238
REMARK   86  A    between atoms: _237  and  _240
REMARK   87  A    between atoms: _243  and  _245
REMARK   88  A    between atoms: _245  and  _246
REMARK   89  A    between atoms: _245  and  _248
REMARK   90  A    between atoms: _248  and  _249
REMARK   91  A    between atoms: _252  and  _254
REMARK   92  A    between atoms: _254  and  _255
REMARK   93  A    between atoms: _254  and  _257
REMARK   94  A    between atoms: _257  and  _258
REMARK   95  A    between atoms: _258  and  _259
REMARK   96  A    between atoms: _262  and  _264
REMARK   97  A    between atoms: _264  and  _265
REMARK   98  A    between atoms: _268  and  _270
REMARK   99  A    between atoms: _270  and  _271
REMARK  100  A    between atoms: _270  and  _273
REMARK  101  A    between atoms: _273  and  _274
REMARK  102  A    between atoms: _277  and  _279
REMARK  103  A    between atoms: _279  and  _280
REMARK  104  A    between atoms: _279  and  _282
REMARK  105  A    between atoms: _282  and  _283
REMARK  106  A    between atoms: _286  and  _288
REMARK  107  A    between atoms: _288  and  _289
REMARK  108  A    between atoms: _292  and  _294
REMARK  109  A    between atoms: _294  and  _295
REMARK  110  A    between atoms: _294  and  _297
REMARK  111  A    between atoms: _300  and  _302
REMARK  112  A    between atoms: _302  and  _303
REMARK  113  A    between atoms: _302  and  _305
REMARK  114  A    between atoms: _305  and  _306
REMARK  115  A    between atoms: _309  and  _311
REMARK  116  A    between atoms: _311  and  _312
REMARK  117  A    between atoms: _315  and  _317
REMARK  118  A    between atoms: _317  and  _318
REMARK  119  A    between atoms: _317  and  _320
REMARK  120  A    between atoms: _320  and  _321
REMARK  121  A    between atoms: _323  and  _325
REMARK  122  A    between atoms: _325  and  _326
REMARK  123  A    between atoms: _325  and  _328
REMARK  124  A    between atoms: _328  and  _329
REMARK  125  A    between atoms: _332  and  _334
REMARK  126  A    between atoms: _334  and  _335
REMARK  127  A    between atoms: _334  and  _337
REMARK  128  A    between atoms: _337  and  _338
REMARK  129  A    between atoms: _341  and  _343
REMARK  130  A    between atoms: _343  and  _344
REMARK  131  A    between atoms: _343  and  _346
REMARK  132  A    between atoms: _346  and  _347
REMARK  133  A    between atoms: _351  and  _352
REMARK  134  A    between atoms: _358  and  _359
REMARK  135  A    between atoms: _364  and  _366
REMARK  136  A    between atoms: _366  and  _367
REMARK  137  A    between atoms: _366  and  _369
REMARK  138  A    between atoms: _371  and  _373
REMARK  139  A    between atoms: _373  and  _374
REMARK  140  A    between atoms: _377  and  _379
REMARK  141  A    between atoms: _379  and  _380
REMARK  142  A    between atoms: _379  and  _382
REMARK  143  A    between atoms: _385  and  _387
REMARK  144  A    between atoms: _387  and  _388
REMARK  145  A    between atoms: _387  and  _390
REMARK  146  A    between atoms: _390  and  _391
REMARK  147  A    between atoms: _401  and  _403
REMARK  148  A    between atoms: _403  and  _404
REMARK  149  A    between atoms: _403  and  _406
REMARK  150  A    between atoms: _406  and  _407
REMARK  151  A    between atoms: _412  and  _414
REMARK  152  A    between atoms: _414  and  _415
REMARK  153  A    between atoms: _414  and  _417
REMARK  154  A    between atoms: _417  and  _418
REMARK  155  A    between atoms: _418  and  _419
REMARK  156  A    between atoms: _419  and  _420
REMARK                            x       y       z     vdW  Elec       q    Type
REMARK                         _______ _______ _______ _____ _____    ______ ____
ROOT
ATOM      1  O   HOH     1     -30.482   2.227   2.201  0.00  0.00    +0.000 OA
ENDROOT
TORSDOF 0
REMARK  Name = ../refined-set-2016/5fl5/5fl5_pocket.pdb
REMARK  156 active torsions:
REMARK  status: ('A' for Active; 'I' for Inactive)
REMARK    1  A    between atoms: _1  and  _5
REMARK    2  A    between atoms: _5  and  _6
REMARK    3  A    between atoms: _5  and  _8
REMARK    4  A    between atoms: _8  and  _9
REMARK    5  A    between atoms: _19  and  _21
REMARK    6  A    between atoms: _21  and  _22
REMARK    7  A    between atoms: _21  and  _24
REMARK    8  A    between atoms: _24  and  _25
REMARK    9  A    between atoms: _30  and  _31
REMARK   10  A    between atoms: _33  and  _35
REMARK   11  A    between atoms: _35  and  _36
REMARK   12  A    between atoms: _35  and  _38
REMARK   13  A    between atoms: _38  and  _39
REMARK   14  A    between atoms: _42  and  _43
REMARK   15  A    between atoms: _48  and  _50
REMARK   16  A    between atoms: _50  and  _51
REMARK   17  A    between atoms: _50  and  _53
REMARK   18  A    between atoms: _53  and  _54
REMARK   19  A    between atoms: _59  and  _61
REMARK   20  A    between atoms: _61  and  _62
REMARK   21  A    between atoms: _61  and  _64
REMARK   22  A    between atoms: _64  and  _65
REMARK   23  A    between atoms: _67  and  _69
REMARK   24  A    between atoms: _69  and  _70
REMARK   25  A    between atoms: _69  and  _72
REMARK   26  A    between atoms: _72  and  _73
REMARK   27  A    between atoms: _73  and  _74
REMARK   28  A    between atoms: _79  and  _81
REMARK   29  A    between atoms: _81  and  _82
REMARK   30  A    between atoms: _81  and  _84
REMARK   31  A    between atoms: _84  and  _85
REMARK   32  A    between atoms: _88  and  _90
REMARK   33  A    between atoms: _90  and  _91
REMARK   34  A    between atoms: _90  and  _93
REMARK   35  A    between atoms: _93  and  _94
REMARK   36  A    between atoms: _94  and  _95
REMARK   37  A    between atoms: _100  and  _102
REMARK   38  A    between atoms: _102  and  _103
REMARK   39  A    between atoms: _102  and  _105
REMARK   40  A    between atoms: _105  and  _106
REMARK   41  A    between atoms: _109  and  _111
REMARK   42  A    between atoms: _122  and  _125
REMARK   43  A    between atoms: _125  and  _126
REMARK   44  A    between atoms: _131  and  _132
REMARK   45  A    between atoms: _140  and  _142
REMARK   46  A    between atoms: _142  and  _143
REMARK   47  A    between atoms: _142  and  _145
REMARK   48  A    between atoms: _145  and  _146
REMARK   49  A    between atoms: _146  and  _147
REMARK   50  A    between atoms: _150  and  _152
REMARK   51  A    between atoms: _152  and  _153
REMARK   52  A    between atoms: _152  and  _155
REMARK   53  A    between atoms: _155  and  _156
REMARK   54  A    between atoms: _161  and  _163
REMARK   55  A    between atoms: _163  and  _164
REMARK   56  A    between atoms: _163  and  _166
REMARK   57  A    between atoms: _166  and  _167
REMARK   58  A    between atoms: _167  and  _168
REMARK   59  A    between atoms: _171  and  _173
REMARK   60  A    between atoms: _173  and  _174
REMARK   61  A    between atoms: _173  and  _176
REMARK   62  A    between atoms: _176  and  _177
REMARK   63  A    between atoms: _180  and  _182
REMARK   64  A    between atoms: _182  and  _183
REMARK   65  A    between atoms: _182  and  _185
REMARK   66  A    between atoms: _185  and  _186
REMARK   67  A    between atoms: _187  and  ZN_429
REMARK   68  A    between atoms: _191  and  _193
REMARK   69  A    between atoms: _193  and  _194
REMARK   70  A    between atoms: _193  and  _196
REMARK   71  A    between atoms: _199  and  _201
REMARK   72  A    between atoms: _201  and  _202
REMARK   73  A    between atoms: _201  and  _204
REMARK   74  A    between atoms: _207  and  _209
REMARK   75  A    between atoms: _209  and  _210
REMARK   76  A    between atoms: _209  and  _212
REMARK   77  A    between atoms: _212  and  _213
REMARK   78  A    between atoms: _218  and  _220
REMARK   79  A    between atoms: _220  and  _221
REMARK   80  A    between atoms: _220  and  _223
REMARK   81  A    between atoms: _223  and  _224
REMARK   82  A    between atoms: _224  and  _225
REMARK   83  A    between atoms: _225  and  _226
REMARK   84  A    between atoms: _235  and  _237
REMARK   85  A    between atoms: _237  and  _238
REMARK   86  A    between atoms: _237  and  _240
REMARK   87  A    between atoms: _243  and  _245
REMARK   88  A    between atoms: _245  and  _246
REMARK   89  A    between atoms: _245  and  _248
REMARK   90  A    between atoms: _248  and  _249
REMARK   91  A    between atoms: _252  and  _254
REMARK   92  A    between atoms: _254  and  _255
REMARK   93  A    between atoms: _254  and  _257
REMARK   94  A    between atoms: _257  and  _258
REMARK   95  A    between atoms: _258  and  _259
REMARK   96  A    between atoms: _262  and  _264
REMARK   97  A    between atoms: _264  and  _265
REMARK   98  A    between atoms: _268  and  _270
REMARK   99  A    between atoms: _270  and  _271
REMARK  100  A    between atoms: _270  and  _273
REMARK  101  A    between atoms: _273  and  _274
REMARK  102  A    between atoms: _277  and  _279
REMARK  103  A    between atoms: _279  and  _280
REMARK  104  A    between atoms: _279  and  _282
REMARK  105  A    between atoms: _282  and  _283
REMARK  106  A    between atoms: _286  and  _288
REMARK  107  A    between atoms: _288  and  _289
REMARK  108  A    between atoms: _292  and  _294
REMARK  109  A    between atoms: _294  and  _295
REMARK  110  A    between atoms: _294  and  _297
REMARK  111  A    between atoms: _300  and  _302
REMARK  112  A    between atoms: _302  and  _303
REMARK  113  A    between atoms: _302  and  _305
REMARK  114  A    between atoms: _305  and  _306
REMARK  115  A    between atoms: _309  and  _311
REMARK  116  A    between atoms: _311  and  _312
REMARK  117  A    between atoms: _315  and  _317
REMARK  118  A    between atoms: _317  and  _318
REMARK  119  A    between atoms: _317  and  _320
REMARK  120  A    between atoms: _320  and  _321
REMARK  121  A    between atoms: _323  and  _325
REMARK  122  A    between atoms: _325  and  _326
REMARK  123  A    between atoms: _325  and  _328
REMARK  124  A    between atoms: _328  and  _329
REMARK  125  A    between atoms: _332  and  _334
REMARK  126  A    between atoms: _334  and  _335
REMARK  127  A    between atoms: _334  and  _337
REMARK  128  A    between atoms: _337  and  _338
REMARK  129  A    between atoms: _341  and  _343
REMARK  130  A    between atoms: _343  and  _344
REMARK  131  A    between atoms: _343  and  _346
REMARK  132  A    between atoms: _346  and  _347
REMARK  133  A    between atoms: _351  and  _352
REMARK  134  A    between atoms: _358  and  _359
REMARK  135  A    between atoms: _364  and  _366
REMARK  136  A    between atoms: _366  and  _367
REMARK  137  A    between atoms: _366  and  _369
REMARK  138  A    between atoms: _371  and  _373
REMARK  139  A    between atoms: _373  and  _374
REMARK  140  A    between atoms: _377  and  _379
REMARK  141  A    between atoms: _379  and  _380
REMARK  142  A    between atoms: _379  and  _382
REMARK  143  A    between atoms: _385  and  _387
REMARK  144  A    between atoms: _387  and  _388
REMARK  145  A    between atoms: _387  and  _390
REMARK  146  A    between atoms: _390  and  _391
REMARK  147  A    between atoms: _401  and  _403
REMARK  148  A    between atoms: _403  and  _404
REMARK  149  A    between atoms: _403  and  _406
REMARK  150  A    between atoms: _406  and  _407
REMARK  151  A    between atoms: _412  and  _414
REMARK  152  A    between atoms: _414  and  _415
REMARK  153  A    between atoms: _414  and  _417
REMARK  154  A    between atoms: _417  and  _418
REMARK  155  A    between atoms: _418  and  _419
REMARK  156  A    between atoms: _419  and  _420
REMARK                            x       y       z     vdW  Elec       q    Type
REMARK                         _______ _______ _______ _____ _____    ______ ____
ROOT
ATOM      1  O   HOH     1     -28.050   4.387   4.595  0.00  0.00    +0.000 OA
ENDROOT
TORSDOF 0
REMARK  Name = ../refined-set-2016/5fl5/5fl5_pocket.pdb
REMARK  156 active torsions:
REMARK  status: ('A' for Active; 'I' for Inactive)
REMARK    1  A    between atoms: _1  and  _5
REMARK    2  A    between atoms: _5  and  _6
REMARK    3  A    between atoms: _5  and  _8
REMARK    4  A    between atoms: _8  and  _9
REMARK    5  A    between atoms: _19  and  _21
REMARK    6  A    between atoms: _21  and  _22
REMARK    7  A    between atoms: _21  and  _24
REMARK    8  A    between atoms: _24  and  _25
REMARK    9  A    between atoms: _30  and  _31
REMARK   10  A    between atoms: _33  and  _35
REMARK   11  A    between atoms: _35  and  _36
REMARK   12  A    between atoms: _35  and  _38
REMARK   13  A    between atoms: _38  and  _39
REMARK   14  A    between atoms: _42  and  _43
REMARK   15  A    between atoms: _48  and  _50
REMARK   16  A    between atoms: _50  and  _51
REMARK   17  A    between atoms: _50  and  _53
REMARK   18  A    between atoms: _53  and  _54
REMARK   19  A    between atoms: _59  and  _61
REMARK   20  A    between atoms: _61  and  _62
REMARK   21  A    between atoms: _61  and  _64
REMARK   22  A    between atoms: _64  and  _65
REMARK   23  A    between atoms: _67  and  _69
REMARK   24  A    between atoms: _69  and  _70
REMARK   25  A    between atoms: _69  and  _72
REMARK   26  A    between atoms: _72  and  _73
REMARK   27  A    between atoms: _73  and  _74
REMARK   28  A    between atoms: _79  and  _81
REMARK   29  A    between atoms: _81  and  _82
REMARK   30  A    between atoms: _81  and  _84
REMARK   31  A    between atoms: _84  and  _85
REMARK   32  A    between atoms: _88  and  _90
REMARK   33  A    between atoms: _90  and  _91
REMARK   34  A    between atoms: _90  and  _93
REMARK   35  A    between atoms: _93  and  _94
REMARK   36  A    between atoms: _94  and  _95
REMARK   37  A    between atoms: _100  and  _102
REMARK   38  A    between atoms: _102  and  _103
REMARK   39  A    between atoms: _102  and  _105
REMARK   40  A    between atoms: _105  and  _106
REMARK   41  A    between atoms: _109  and  _111
REMARK   42  A    between atoms: _122  and  _125
REMARK   43  A    between atoms: _125  and  _126
REMARK   44  A    between atoms: _131  and  _132
REMARK   45  A    between atoms: _140  and  _142
REMARK   46  A    between atoms: _142  and  _143
REMARK   47  A    between atoms: _142  and  _145
REMARK   48  A    between atoms: _145  and  _146
REMARK   49  A    between atoms: _146  and  _147
REMARK   50  A    between atoms: _150  and  _152
REMARK   51  A    between atoms: _152  and  _153
REMARK   52  A    between atoms: _152  and  _155
REMARK   53  A    between atoms: _155  and  _156
REMARK   54  A    between atoms: _161  and  _163
REMARK   55  A    between atoms: _163  and  _164
REMARK   56  A    between atoms: _163  and  _166
REMARK   57  A    between atoms: _166  and  _167
REMARK   58  A    between atoms: _167  and  _168
REMARK   59  A    between atoms: _171  and  _173
REMARK   60  A    between atoms: _173  and  _174
REMARK   61  A    between atoms: _173  and  _176
REMARK   62  A    between atoms: _176  and  _177
REMARK   63  A    between atoms: _180  and  _182
REMARK   64  A    between atoms: _182  and  _183
REMARK   65  A    between atoms: _182  and  _185
REMARK   66  A    between atoms: _185  and  _186
REMARK   67  A    between atoms: _187  and  ZN_429
REMARK   68  A    between atoms: _191  and  _193
REMARK   69  A    between atoms: _193  and  _194
REMARK   70  A    between atoms: _193  and  _196
REMARK   71  A    between atoms: _199  and  _201
REMARK   72  A    between atoms: _201  and  _202
REMARK   73  A    between atoms: _201  and  _204
REMARK   74  A    between atoms: _207  and  _209
REMARK   75  A    between atoms: _209  and  _210
REMARK   76  A    between atoms: _209  and  _212
REMARK   77  A    between atoms: _212  and  _213
REMARK   78  A    between atoms: _218  and  _220
REMARK   79  A    between atoms: _220  and  _221
REMARK   80  A    between atoms: _220  and  _223
REMARK   81  A    between atoms: _223  and  _224
REMARK   82  A    between atoms: _224  and  _225
REMARK   83  A    between atoms: _225  and  _226
REMARK   84  A    between atoms: _235  and  _237
REMARK   85  A    between atoms: _237  and  _238
REMARK   86  A    between atoms: _237  and  _240
REMARK   87  A    between atoms: _243  and  _245
REMARK   88  A    between atoms: _245  and  _246
REMARK   89  A    between atoms: _245  and  _248
REMARK   90  A    between atoms: _248  and  _249
REMARK   91  A    between atoms: _252  and  _254
REMARK   92  A    between atoms: _254  and  _255
REMARK   93  A    between atoms: _254  and  _257
REMARK   94  A    between atoms: _257  and  _258
REMARK   95  A    between atoms: _258  and  _259
REMARK   96  A    between atoms: _262  and  _264
REMARK   97  A    between atoms: _264  and  _265
REMARK   98  A    between atoms: _268  and  _270
REMARK   99  A    between atoms: _270  and  _271
REMARK  100  A    between atoms: _270  and  _273
REMARK  101  A    between atoms: _273  and  _274
REMARK  102  A    between atoms: _277  and  _279
REMARK  103  A    between atoms: _279  and  _280
REMARK  104  A    between atoms: _279  and  _282
REMARK  105  A    between atoms: _282  and  _283
REMARK  106  A    between atoms: _286  and  _288
REMARK  107  A    between atoms: _288  and  _289
REMARK  108  A    between atoms: _292  and  _294
REMARK  109  A    between atoms: _294  and  _295
REMARK  110  A    between atoms: _294  and  _297
REMARK  111  A    between atoms: _300  and  _302
REMARK  112  A    between atoms: _302  and  _303
REMARK  113  A    between atoms: _302  and  _305
REMARK  114  A    between atoms: _305  and  _306
REMARK  115  A    between atoms: _309  and  _311
REMARK  116  A    between atoms: _311  and  _312
REMARK  117  A    between atoms: _315  and  _317
REMARK  118  A    between atoms: _317  and  _318
REMARK  119  A    between atoms: _317  and  _320
REMARK  120  A    between atoms: _320  and  _321
REMARK  121  A    between atoms: _323  and  _325
REMARK  122  A    between atoms: _325  and  _326
REMARK  123  A    between atoms: _325  and  _328
REMARK  124  A    between atoms: _328  and  _329
REMARK  125  A    between atoms: _332  and  _334
REMARK  126  A    between atoms: _334  and  _335
REMARK  127  A    between atoms: _334  and  _337
REMARK  128  A    between atoms: _337  and  _338
REMARK  129  A    between atoms: _341  and  _343
REMARK  130  A    between atoms: _343  and  _344
REMARK  131  A    between atoms: _343  and  _346
REMARK  132  A    between atoms: _346  and  _347
REMARK  133  A    between atoms: _351  and  _352
REMARK  134  A    between atoms: _358  and  _359
REMARK  135  A    between atoms: _364  and  _366
REMARK  136  A    between atoms: _366  and  _367
REMARK  137  A    between atoms: _366  and  _369
REMARK  138  A    between atoms: _371  and  _373
REMARK  139  A    between atoms: _373  and  _374
REMARK  140  A    between atoms: _377  and  _379
REMARK  141  A    between atoms: _379  and  _380
REMARK  142  A    between atoms: _379  and  _382
REMARK  143  A    between atoms: _385  and  _387
REMARK  144  A    between atoms: _387  and  _388
REMARK  145  A    between atoms: _387  and  _390
REMARK  146  A    between atoms: _390  and  _391
REMARK  147  A    between atoms: _401  and  _403
REMARK  148  A    between atoms: _403  and  _404
REMARK  149  A    between atoms: _403  and  _406
REMARK  150  A    between atoms: _406  and  _407
REMARK  151  A    between atoms: _412  and  _414
REMARK  152  A    between atoms: _414  and  _415
REMARK  153  A    between atoms: _414  and  _417
REMARK  154  A    between atoms: _417  and  _418
REMARK  155  A    between atoms: _418  and  _419
REMARK  156  A    between atoms: _419  and  _420
REMARK                            x       y       z     vdW  Elec       q    Type
REMARK                         _______ _______ _______ _____ _____    ______ ____
ROOT
ATOM      1  O   HOH     1     -31.466  -0.094   2.689  0.00  0.00    +0.000 OA
ENDROOT
TORSDOF 0
REMARK  Name = ../refined-set-2016/5fl5/5fl5_pocket.pdb
REMARK  156 active torsions:
REMARK  status: ('A' for Active; 'I' for Inactive)
REMARK    1  A    between atoms: _1  and  _5
REMARK    2  A    between atoms: _5  and  _6
REMARK    3  A    between atoms: _5  and  _8
REMARK    4  A    between atoms: _8  and  _9
REMARK    5  A    between atoms: _19  and  _21
REMARK    6  A    between atoms: _21  and  _22
REMARK    7  A    between atoms: _21  and  _24
REMARK    8  A    between atoms: _24  and  _25
REMARK    9  A    between atoms: _30  and  _31
REMARK   10  A    between atoms: _33  and  _35
REMARK   11  A    between atoms: _35  and  _36
REMARK   12  A    between atoms: _35  and  _38
REMARK   13  A    between atoms: _38  and  _39
REMARK   14  A    between atoms: _42  and  _43
REMARK   15  A    between atoms: _48  and  _50
REMARK   16  A    between atoms: _50  and  _51
REMARK   17  A    between atoms: _50  and  _53
REMARK   18  A    between atoms: _53  and  _54
REMARK   19  A    between atoms: _59  and  _61
REMARK   20  A    between atoms: _61  and  _62
REMARK   21  A    between atoms: _61  and  _64
REMARK   22  A    between atoms: _64  and  _65
REMARK   23  A    between atoms: _67  and  _69
REMARK   24  A    between atoms: _69  and  _70
REMARK   25  A    between atoms: _69  and  _72
REMARK   26  A    between atoms: _72  and  _73
REMARK   27  A    between atoms: _73  and  _74
REMARK   28  A    between atoms: _79  and  _81
REMARK   29  A    between atoms: _81  and  _82
REMARK   30  A    between atoms: _81  and  _84
REMARK   31  A    between atoms: _84  and  _85
REMARK   32  A    between atoms: _88  and  _90
REMARK   33  A    between atoms: _90  and  _91
REMARK   34  A    between atoms: _90  and  _93
REMARK   35  A    between atoms: _93  and  _94
REMARK   36  A    between atoms: _94  and  _95
REMARK   37  A    between atoms: _100  and  _102
REMARK   38  A    between atoms: _102  and  _103
REMARK   39  A    between atoms: _102  and  _105
REMARK   40  A    between atoms: _105  and  _106
REMARK   41  A    between atoms: _109  and  _111
REMARK   42  A    between atoms: _122  and  _125
REMARK   43  A    between atoms: _125  and  _126
REMARK   44  A    between atoms: _131  and  _132
REMARK   45  A    between atoms: _140  and  _142
REMARK   46  A    between atoms: _142  and  _143
REMARK   47  A    between atoms: _142  and  _145
REMARK   48  A    between atoms: _145  and  _146
REMARK   49  A    between atoms: _146  and  _147
REMARK   50  A    between atoms: _150  and  _152
REMARK   51  A    between atoms: _152  and  _153
REMARK   52  A    between atoms: _152  and  _155
REMARK   53  A    between atoms: _155  and  _156
REMARK   54  A    between atoms: _161  and  _163
REMARK   55  A    between atoms: _163  and  _164
REMARK   56  A    between atoms: _163  and  _166
REMARK   57  A    between atoms: _166  and  _167
REMARK   58  A    between atoms: _167  and  _168
REMARK   59  A    between atoms: _171  and  _173
REMARK   60  A    between atoms: _173  and  _174
REMARK   61  A    between atoms: _173  and  _176
REMARK   62  A    between atoms: _176  and  _177
REMARK   63  A    between atoms: _180  and  _182
REMARK   64  A    between atoms: _182  and  _183
REMARK   65  A    between atoms: _182  and  _185
REMARK   66  A    between atoms: _185  and  _186
REMARK   67  A    between atoms: _187  and  ZN_429
REMARK   68  A    between atoms: _191  and  _193
REMARK   69  A    between atoms: _193  and  _194
REMARK   70  A    between atoms: _193  and  _196
REMARK   71  A    between atoms: _199  and  _201
REMARK   72  A    between atoms: _201  and  _202
REMARK   73  A    between atoms: _201  and  _204
REMARK   74  A    between atoms: _207  and  _209
REMARK   75  A    between atoms: _209  and  _210
REMARK   76  A    between atoms: _209  and  _212
REMARK   77  A    between atoms: _212  and  _213
REMARK   78  A    between atoms: _218  and  _220
REMARK   79  A    between atoms: _220  and  _221
REMARK   80  A    between atoms: _220  and  _223
REMARK   81  A    between atoms: _223  and  _224
REMARK   82  A    between atoms: _224  and  _225
REMARK   83  A    between atoms: _225  and  _226
REMARK   84  A    between atoms: _235  and  _237
REMARK   85  A    between atoms: _237  and  _238
REMARK   86  A    between atoms: _237  and  _240
REMARK   87  A    between atoms: _243  and  _245
REMARK   88  A    between atoms: _245  and  _246
REMARK   89  A    between atoms: _245  and  _248
REMARK   90  A    between atoms: _248  and  _249
REMARK   91  A    between atoms: _252  and  _254
REMARK   92  A    between atoms: _254  and  _255
REMARK   93  A    between atoms: _254  and  _257
REMARK   94  A    between atoms: _257  and  _258
REMARK   95  A    between atoms: _258  and  _259
REMARK   96  A    between atoms: _262  and  _264
REMARK   97  A    between atoms: _264  and  _265
REMARK   98  A    between atoms: _268  and  _270
REMARK   99  A    between atoms: _270  and  _271
REMARK  100  A    between atoms: _270  and  _273
REMARK  101  A    between atoms: _273  and  _274
REMARK  102  A    between atoms: _277  and  _279
REMARK  103  A    between atoms: _279  and  _280
REMARK  104  A    between atoms: _279  and  _282
REMARK  105  A    between atoms: _282  and  _283
REMARK  106  A    between atoms: _286  and  _288
REMARK  107  A    between atoms: _288  and  _289
REMARK  108  A    between atoms: _292  and  _294
REMARK  109  A    between atoms: _294  and  _295
REMARK  110  A    between atoms: _294  and  _297
REMARK  111  A    between atoms: _300  and  _302
REMARK  112  A    between atoms: _302  and  _303
REMARK  113  A    between atoms: _302  and  _305
REMARK  114  A    between atoms: _305  and  _306
REMARK  115  A    between atoms: _309  and  _311
REMARK  116  A    between atoms: _311  and  _312
REMARK  117  A    between atoms: _315  and  _317
REMARK  118  A    between atoms: _317  and  _318
REMARK  119  A    between atoms: _317  and  _320
REMARK  120  A    between atoms: _320  and  _321
REMARK  121  A    between atoms: _323  and  _325
REMARK  122  A    between atoms: _325  and  _326
REMARK  123  A    between atoms: _325  and  _328
REMARK  124  A    between atoms: _328  and  _329
REMARK  125  A    between atoms: _332  and  _334
REMARK  126  A    between atoms: _334  and  _335
REMARK  127  A    between atoms: _334  and  _337
REMARK  128  A    between atoms: _337  and  _338
REMARK  129  A    between atoms: _341  and  _343
REMARK  130  A    between atoms: _343  and  _344
REMARK  131  A    between atoms: _343  and  _346
REMARK  132  A    between atoms: _346  and  _347
REMARK  133  A    between atoms: _351  and  _352
REMARK  134  A    between atoms: _358  and  _359
REMARK  135  A    between atoms: _364  and  _366
REMARK  136  A    between atoms: _366  and  _367
REMARK  137  A    between atoms: _366  and  _369
REMARK  138  A    between atoms: _371  and  _373
REMARK  139  A    between atoms: _373  and  _374
REMARK  140  A    between atoms: _377  and  _379
REMARK  141  A    between atoms: _379  and  _380
REMARK  142  A    between atoms: _379  and  _382
REMARK  143  A    between atoms: _385  and  _387
REMARK  144  A    between atoms: _387  and  _388
REMARK  145  A    between atoms: _387  and  _390
REMARK  146  A    between atoms: _390  and  _391
REMARK  147  A    between atoms: _401  and  _403
REMARK  148  A    between atoms: _403  and  _404
REMARK  149  A    between atoms: _403  and  _406
REMARK  150  A    between atoms: _406  and  _407
REMARK  151  A    between atoms: _412  and  _414
REMARK  152  A    between atoms: _414  and  _415
REMARK  153  A    between atoms: _414  and  _417
REMARK  154  A    between atoms: _417  and  _418
REMARK  155  A    between atoms: _418  and  _419
REMARK  156  A    between atoms: _419  and  _420
REMARK                            x       y       z     vdW  Elec       q    Type
REMARK                         _______ _______ _______ _____ _____    ______ ____
ROOT
ATOM      1  O   HOH     1     -29.890   5.961   4.798  0.00  0.00    +0.000 OA
ENDROOT
TORSDOF 0
REMARK  Name = ../refined-set-2016/5fl5/5fl5_pocket.pdb
REMARK  156 active torsions:
REMARK  status: ('A' for Active; 'I' for Inactive)
REMARK    1  A    between atoms: _1  and  _5
REMARK    2  A    between atoms: _5  and  _6
REMARK    3  A    between atoms: _5  and  _8
REMARK    4  A    between atoms: _8  and  _9
REMARK    5  A    between atoms: _19  and  _21
REMARK    6  A    between atoms: _21  and  _22
REMARK    7  A    between atoms: _21  and  _24
REMARK    8  A    between atoms: _24  and  _25
REMARK    9  A    between atoms: _30  and  _31
REMARK   10  A    between atoms: _33  and  _35
REMARK   11  A    between atoms: _35  and  _36
REMARK   12  A    between atoms: _35  and  _38
REMARK   13  A    between atoms: _38  and  _39
REMARK   14  A    between atoms: _42  and  _43
REMARK   15  A    between atoms: _48  and  _50
REMARK   16  A    between atoms: _50  and  _51
REMARK   17  A    between atoms: _50  and  _53
REMARK   18  A    between atoms: _53  and  _54
REMARK   19  A    between atoms: _59  and  _61
REMARK   20  A    between atoms: _61  and  _62
REMARK   21  A    between atoms: _61  and  _64
REMARK   22  A    between atoms: _64  and  _65
REMARK   23  A    between atoms: _67  and  _69
REMARK   24  A    between atoms: _69  and  _70
REMARK   25  A    between atoms: _69  and  _72
REMARK   26  A    between atoms: _72  and  _73
REMARK   27  A    between atoms: _73  and  _74
REMARK   28  A    between atoms: _79  and  _81
REMARK   29  A    between atoms: _81  and  _82
REMARK   30  A    between atoms: _81  and  _84
REMARK   31  A    between atoms: _84  and  _85
REMARK   32  A    between atoms: _88  and  _90
REMARK   33  A    between atoms: _90  and  _91
REMARK   34  A    between atoms: _90  and  _93
REMARK   35  A    between atoms: _93  and  _94
REMARK   36  A    between atoms: _94  and  _95
REMARK   37  A    between atoms: _100  and  _102
REMARK   38  A    between atoms: _102  and  _103
REMARK   39  A    between atoms: _102  and  _105
REMARK   40  A    between atoms: _105  and  _106
REMARK   41  A    between atoms: _109  and  _111
REMARK   42  A    between atoms: _122  and  _125
REMARK   43  A    between atoms: _125  and  _126
REMARK   44  A    between atoms: _131  and  _132
REMARK   45  A    between atoms: _140  and  _142
REMARK   46  A    between atoms: _142  and  _143
REMARK   47  A    between atoms: _142  and  _145
REMARK   48  A    between atoms: _145  and  _146
REMARK   49  A    between atoms: _146  and  _147
REMARK   50  A    between atoms: _150  and  _152
REMARK   51  A    between atoms: _152  and  _153
REMARK   52  A    between atoms: _152  and  _155
REMARK   53  A    between atoms: _155  and  _156
REMARK   54  A    between atoms: _161  and  _163
REMARK   55  A    between atoms: _163  and  _164
REMARK   56  A    between atoms: _163  and  _166
REMARK   57  A    between atoms: _166  and  _167
REMARK   58  A    between atoms: _167  and  _168
REMARK   59  A    between atoms: _171  and  _173
REMARK   60  A    between atoms: _173  and  _174
REMARK   61  A    between atoms: _173  and  _176
REMARK   62  A    between atoms: _176  and  _177
REMARK   63  A    between atoms: _180  and  _182
REMARK   64  A    between atoms: _182  and  _183
REMARK   65  A    between atoms: _182  and  _185
REMARK   66  A    between atoms: _185  and  _186
REMARK   67  A    between atoms: _187  and  ZN_429
REMARK   68  A    between atoms: _191  and  _193
REMARK   69  A    between atoms: _193  and  _194
REMARK   70  A    between atoms: _193  and  _196
REMARK   71  A    between atoms: _199  and  _201
REMARK   72  A    between atoms: _201  and  _202
REMARK   73  A    between atoms: _201  and  _204
REMARK   74  A    between atoms: _207  and  _209
REMARK   75  A    between atoms: _209  and  _210
REMARK   76  A    between atoms: _209  and  _212
REMARK   77  A    between atoms: _212  and  _213
REMARK   78  A    between atoms: _218  and  _220
REMARK   79  A    between atoms: _220  and  _221
REMARK   80  A    between atoms: _220  and  _223
REMARK   81  A    between atoms: _223  and  _224
REMARK   82  A    between atoms: _224  and  _225
REMARK   83  A    between atoms: _225  and  _226
REMARK   84  A    between atoms: _235  and  _237
REMARK   85  A    between atoms: _237  and  _238
REMARK   86  A    between atoms: _237  and  _240
REMARK   87  A    between atoms: _243  and  _245
REMARK   88  A    between atoms: _245  and  _246
REMARK   89  A    between atoms: _245  and  _248
REMARK   90  A    between atoms: _248  and  _249
REMARK   91  A    between atoms: _252  and  _254
REMARK   92  A    between atoms: _254  and  _255
REMARK   93  A    between atoms: _254  and  _257
REMARK   94  A    between atoms: _257  and  _258
REMARK   95  A    between atoms: _258  and  _259
REMARK   96  A    between atoms: _262  and  _264
REMARK   97  A    between atoms: _264  and  _265
REMARK   98  A    between atoms: _268  and  _270
REMARK   99  A    between atoms: _270  and  _271
REMARK  100  A    between atoms: _270  and  _273
REMARK  101  A    between atoms: _273  and  _274
REMARK  102  A    between atoms: _277  and  _279
REMARK  103  A    between atoms: _279  and  _280
REMARK  104  A    between atoms: _279  and  _282
REMARK  105  A    between atoms: _282  and  _283
REMARK  106  A    between atoms: _286  and  _288
REMARK  107  A    between atoms: _288  and  _289
REMARK  108  A    between atoms: _292  and  _294
REMARK  109  A    between atoms: _294  and  _295
REMARK  110  A    between atoms: _294  and  _297
REMARK  111  A    between atoms: _300  and  _302
REMARK  112  A    between atoms: _302  and  _303
REMARK  113  A    between atoms: _302  and  _305
REMARK  114  A    between atoms: _305  and  _306
REMARK  115  A    between atoms: _309  and  _311
REMARK  116  A    between atoms: _311  and  _312
REMARK  117  A    between atoms: _315  and  _317
REMARK  118  A    between atoms: _317  and  _318
REMARK  119  A    between atoms: _317  and  _320
REMARK  120  A    between atoms: _320  and  _321
REMARK  121  A    between atoms: _323  and  _325
REMARK  122  A    between atoms: _325  and  _326
REMARK  123  A    between atoms: _325  and  _328
REMARK  124  A    between atoms: _328  and  _329
REMARK  125  A    between atoms: _332  and  _334
REMARK  126  A    between atoms: _334  and  _335
REMARK  127  A    between atoms: _334  and  _337
REMARK  128  A    between atoms: _337  and  _338
REMARK  129  A    between atoms: _341  and  _343
REMARK  130  A    between atoms: _343  and  _344
REMARK  131  A    between atoms: _343  and  _346
REMARK  132  A    between atoms: _346  and  _347
REMARK  133  A    between atoms: _351  and  _352
REMARK  134  A    between atoms: _358  and  _359
REMARK  135  A    between atoms: _364  and  _366
REMARK  136  A    between atoms: _366  and  _367
REMARK  137  A    between atoms: _366  and  _369
REMARK  138  A    between atoms: _371  and  _373
REMARK  139  A    between atoms: _373  and  _374
REMARK  140  A    between atoms: _377  and  _379
REMARK  141  A    between atoms: _379  and  _380
REMARK  142  A    between atoms: _379  and  _382
REMARK  143  A    between atoms: _385  and  _387
REMARK  144  A    between atoms: _387  and  _388
REMARK  145  A    between atoms: _387  and  _390
REMARK  146  A    between atoms: _390  and  _391
REMARK  147  A    between atoms: _401  and  _403
REMARK  148  A    between atoms: _403  and  _404
REMARK  149  A    between atoms: _403  and  _406
REMARK  150  A    between atoms: _406  and  _407
REMARK  151  A    between atoms: _412  and  _414
REMARK  152  A    between atoms: _414  and  _415
REMARK  153  A    between atoms: _414  and  _417
REMARK  154  A    between atoms: _417  and  _418
REMARK  155  A    between atoms: _418  and  _419
REMARK  156  A    between atoms: _419  and  _420
REMARK                            x       y       z     vdW  Elec       q    Type
REMARK                         _______ _______ _______ _____ _____    ______ ____
ROOT
ATOM      1  O   HOH     1     -34.646   7.711  -3.961  0.00  0.00    +0.000 OA
ENDROOT
TORSDOF 0
REMARK  Name = ../refined-set-2016/5fl5/5fl5_pocket.pdb
REMARK  156 active torsions:
REMARK  status: ('A' for Active; 'I' for Inactive)
REMARK    1  A    between atoms: _1  and  _5
REMARK    2  A    between atoms: _5  and  _6
REMARK    3  A    between atoms: _5  and  _8
REMARK    4  A    between atoms: _8  and  _9
REMARK    5  A    between atoms: _19  and  _21
REMARK    6  A    between atoms: _21  and  _22
REMARK    7  A    between atoms: _21  and  _24
REMARK    8  A    between atoms: _24  and  _25
REMARK    9  A    between atoms: _30  and  _31
REMARK   10  A    between atoms: _33  and  _35
REMARK   11  A    between atoms: _35  and  _36
REMARK   12  A    between atoms: _35  and  _38
REMARK   13  A    between atoms: _38  and  _39
REMARK   14  A    between atoms: _42  and  _43
REMARK   15  A    between atoms: _48  and  _50
REMARK   16  A    between atoms: _50  and  _51
REMARK   17  A    between atoms: _50  and  _53
REMARK   18  A    between atoms: _53  and  _54
REMARK   19  A    between atoms: _59  and  _61
REMARK   20  A    between atoms: _61  and  _62
REMARK   21  A    between atoms: _61  and  _64
REMARK   22  A    between atoms: _64  and  _65
REMARK   23  A    between atoms: _67  and  _69
REMARK   24  A    between atoms: _69  and  _70
REMARK   25  A    between atoms: _69  and  _72
REMARK   26  A    between atoms: _72  and  _73
REMARK   27  A    between atoms: _73  and  _74
REMARK   28  A    between atoms: _79  and  _81
REMARK   29  A    between atoms: _81  and  _82
REMARK   30  A    between atoms: _81  and  _84
REMARK   31  A    between atoms: _84  and  _85
REMARK   32  A    between atoms: _88  and  _90
REMARK   33  A    between atoms: _90  and  _91
REMARK   34  A    between atoms: _90  and  _93
REMARK   35  A    between atoms: _93  and  _94
REMARK   36  A    between atoms: _94  and  _95
REMARK   37  A    between atoms: _100  and  _102
REMARK   38  A    between atoms: _102  and  _103
REMARK   39  A    between atoms: _102  and  _105
REMARK   40  A    between atoms: _105  and  _106
REMARK   41  A    between atoms: _109  and  _111
REMARK   42  A    between atoms: _122  and  _125
REMARK   43  A    between atoms: _125  and  _126
REMARK   44  A    between atoms: _131  and  _132
REMARK   45  A    between atoms: _140  and  _142
REMARK   46  A    between atoms: _142  and  _143
REMARK   47  A    between atoms: _142  and  _145
REMARK   48  A    between atoms: _145  and  _146
REMARK   49  A    between atoms: _146  and  _147
REMARK   50  A    between atoms: _150  and  _152
REMARK   51  A    between atoms: _152  and  _153
REMARK   52  A    between atoms: _152  and  _155
REMARK   53  A    between atoms: _155  and  _156
REMARK   54  A    between atoms: _161  and  _163
REMARK   55  A    between atoms: _163  and  _164
REMARK   56  A    between atoms: _163  and  _166
REMARK   57  A    between atoms: _166  and  _167
REMARK   58  A    between atoms: _167  and  _168
REMARK   59  A    between atoms: _171  and  _173
REMARK   60  A    between atoms: _173  and  _174
REMARK   61  A    between atoms: _173  and  _176
REMARK   62  A    between atoms: _176  and  _177
REMARK   63  A    between atoms: _180  and  _182
REMARK   64  A    between atoms: _182  and  _183
REMARK   65  A    between atoms: _182  and  _185
REMARK   66  A    between atoms: _185  and  _186
REMARK   67  A    between atoms: _187  and  ZN_429
REMARK   68  A    between atoms: _191  and  _193
REMARK   69  A    between atoms: _193  and  _194
REMARK   70  A    between atoms: _193  and  _196
REMARK   71  A    between atoms: _199  and  _201
REMARK   72  A    between atoms: _201  and  _202
REMARK   73  A    between atoms: _201  and  _204
REMARK   74  A    between atoms: _207  and  _209
REMARK   75  A    between atoms: _209  and  _210
REMARK   76  A    between atoms: _209  and  _212
REMARK   77  A    between atoms: _212  and  _213
REMARK   78  A    between atoms: _218  and  _220
REMARK   79  A    between atoms: _220  and  _221
REMARK   80  A    between atoms: _220  and  _223
REMARK   81  A    between atoms: _223  and  _224
REMARK   82  A    between atoms: _224  and  _225
REMARK   83  A    between atoms: _225  and  _226
REMARK   84  A    between atoms: _235  and  _237
REMARK   85  A    between atoms: _237  and  _238
REMARK   86  A    between atoms: _237  and  _240
REMARK   87  A    between atoms: _243  and  _245
REMARK   88  A    between atoms: _245  and  _246
REMARK   89  A    between atoms: _245  and  _248
REMARK   90  A    between atoms: _248  and  _249
REMARK   91  A    between atoms: _252  and  _254
REMARK   92  A    between atoms: _254  and  _255
REMARK   93  A    between atoms: _254  and  _257
REMARK   94  A    between atoms: _257  and  _258
REMARK   95  A    between atoms: _258  and  _259
REMARK   96  A    between atoms: _262  and  _264
REMARK   97  A    between atoms: _264  and  _265
REMARK   98  A    between atoms: _268  and  _270
REMARK   99  A    between atoms: _270  and  _271
REMARK  100  A    between atoms: _270  and  _273
REMARK  101  A    between atoms: _273  and  _274
REMARK  102  A    between atoms: _277  and  _279
REMARK  103  A    between atoms: _279  and  _280
REMARK  104  A    between atoms: _279  and  _282
REMARK  105  A    between atoms: _282  and  _283
REMARK  106  A    between atoms: _286  and  _288
REMARK  107  A    between atoms: _288  and  _289
REMARK  108  A    between atoms: _292  and  _294
REMARK  109  A    between atoms: _294  and  _295
REMARK  110  A    between atoms: _294  and  _297
REMARK  111  A    between atoms: _300  and  _302
REMARK  112  A    between atoms: _302  and  _303
REMARK  113  A    between atoms: _302  and  _305
REMARK  114  A    between atoms: _305  and  _306
REMARK  115  A    between atoms: _309  and  _311
REMARK  116  A    between atoms: _311  and  _312
REMARK  117  A    between atoms: _315  and  _317
REMARK  118  A    between atoms: _317  and  _318
REMARK  119  A    between atoms: _317  and  _320
REMARK  120  A    between atoms: _320  and  _321
REMARK  121  A    between atoms: _323  and  _325
REMARK  122  A    between atoms: _325  and  _326
REMARK  123  A    between atoms: _325  and  _328
REMARK  124  A    between atoms: _328  and  _329
REMARK  125  A    between atoms: _332  and  _334
REMARK  126  A    between atoms: _334  and  _335
REMARK  127  A    between atoms: _334  and  _337
REMARK  128  A    between atoms: _337  and  _338
REMARK  129  A    between atoms: _341  and  _343
REMARK  130  A    between atoms: _343  and  _344
REMARK  131  A    between atoms: _343  and  _346
REMARK  132  A    between atoms: _346  and  _347
REMARK  133  A    between atoms: _351  and  _352
REMARK  134  A    between atoms: _358  and  _359
REMARK  135  A    between atoms: _364  and  _366
REMARK  136  A    between atoms: _366  and  _367
REMARK  137  A    between atoms: _366  and  _369
REMARK  138  A    between atoms: _371  and  _373
REMARK  139  A    between atoms: _373  and  _374
REMARK  140  A    between atoms: _377  and  _379
REMARK  141  A    between atoms: _379  and  _380
REMARK  142  A    between atoms: _379  and  _382
REMARK  143  A    between atoms: _385  and  _387
REMARK  144  A    between atoms: _387  and  _388
REMARK  145  A    between atoms: _387  and  _390
REMARK  146  A    between atoms: _390  and  _391
REMARK  147  A    between atoms: _401  and  _403
REMARK  148  A    between atoms: _403  and  _404
REMARK  149  A    between atoms: _403  and  _406
REMARK  150  A    between atoms: _406  and  _407
REMARK  151  A    between atoms: _412  and  _414
REMARK  152  A    between atoms: _414  and  _415
REMARK  153  A    between atoms: _414  and  _417
REMARK  154  A    between atoms: _417  and  _418
REMARK  155  A    between atoms: _418  and  _419
REMARK  156  A    between atoms: _419  and  _420
REMARK                            x       y       z     vdW  Elec       q    Type
REMARK                         _______ _______ _______ _____ _____    ______ ____
ROOT
ATOM      1  O   HOH     1     -30.852   8.388  -2.778  0.00  0.00    +0.000 OA
ENDROOT
TORSDOF 0
REMARK  Name = ../refined-set-2016/5fl5/5fl5_pocket.pdb
REMARK  156 active torsions:
REMARK  status: ('A' for Active; 'I' for Inactive)
REMARK    1  A    between atoms: _1  and  _5
REMARK    2  A    between atoms: _5  and  _6
REMARK    3  A    between atoms: _5  and  _8
REMARK    4  A    between atoms: _8  and  _9
REMARK    5  A    between atoms: _19  and  _21
REMARK    6  A    between atoms: _21  and  _22
REMARK    7  A    between atoms: _21  and  _24
REMARK    8  A    between atoms: _24  and  _25
REMARK    9  A    between atoms: _30  and  _31
REMARK   10  A    between atoms: _33  and  _35
REMARK   11  A    between atoms: _35  and  _36
REMARK   12  A    between atoms: _35  and  _38
REMARK   13  A    between atoms: _38  and  _39
REMARK   14  A    between atoms: _42  and  _43
REMARK   15  A    between atoms: _48  and  _50
REMARK   16  A    between atoms: _50  and  _51
REMARK   17  A    between atoms: _50  and  _53
REMARK   18  A    between atoms: _53  and  _54
REMARK   19  A    between atoms: _59  and  _61
REMARK   20  A    between atoms: _61  and  _62
REMARK   21  A    between atoms: _61  and  _64
REMARK   22  A    between atoms: _64  and  _65
REMARK   23  A    between atoms: _67  and  _69
REMARK   24  A    between atoms: _69  and  _70
REMARK   25  A    between atoms: _69  and  _72
REMARK   26  A    between atoms: _72  and  _73
REMARK   27  A    between atoms: _73  and  _74
REMARK   28  A    between atoms: _79  and  _81
REMARK   29  A    between atoms: _81  and  _82
REMARK   30  A    between atoms: _81  and  _84
REMARK   31  A    between atoms: _84  and  _85
REMARK   32  A    between atoms: _88  and  _90
REMARK   33  A    between atoms: _90  and  _91
REMARK   34  A    between atoms: _90  and  _93
REMARK   35  A    between atoms: _93  and  _94
REMARK   36  A    between atoms: _94  and  _95
REMARK   37  A    between atoms: _100  and  _102
REMARK   38  A    between atoms: _102  and  _103
REMARK   39  A    between atoms: _102  and  _105
REMARK   40  A    between atoms: _105  and  _106
REMARK   41  A    between atoms: _109  and  _111
REMARK   42  A    between atoms: _122  and  _125
REMARK   43  A    between atoms: _125  and  _126
REMARK   44  A    between atoms: _131  and  _132
REMARK   45  A    between atoms: _140  and  _142
REMARK   46  A    between atoms: _142  and  _143
REMARK   47  A    between atoms: _142  and  _145
REMARK   48  A    between atoms: _145  and  _146
REMARK   49  A    between atoms: _146  and  _147
REMARK   50  A    between atoms: _150  and  _152
REMARK   51  A    between atoms: _152  and  _153
REMARK   52  A    between atoms: _152  and  _155
REMARK   53  A    between atoms: _155  and  _156
REMARK   54  A    between atoms: _161  and  _163
REMARK   55  A    between atoms: _163  and  _164
REMARK   56  A    between atoms: _163  and  _166
REMARK   57  A    between atoms: _166  and  _167
REMARK   58  A    between atoms: _167  and  _168
REMARK   59  A    between atoms: _171  and  _173
REMARK   60  A    between atoms: _173  and  _174
REMARK   61  A    between atoms: _173  and  _176
REMARK   62  A    between atoms: _176  and  _177
REMARK   63  A    between atoms: _180  and  _182
REMARK   64  A    between atoms: _182  and  _183
REMARK   65  A    between atoms: _182  and  _185
REMARK   66  A    between atoms: _185  and  _186
REMARK   67  A    between atoms: _187  and  ZN_429
REMARK   68  A    between atoms: _191  and  _193
REMARK   69  A    between atoms: _193  and  _194
REMARK   70  A    between atoms: _193  and  _196
REMARK   71  A    between atoms: _199  and  _201
REMARK   72  A    between atoms: _201  and  _202
REMARK   73  A    between atoms: _201  and  _204
REMARK   74  A    between atoms: _207  and  _209
REMARK   75  A    between atoms: _209  and  _210
REMARK   76  A    between atoms: _209  and  _212
REMARK   77  A    between atoms: _212  and  _213
REMARK   78  A    between atoms: _218  and  _220
REMARK   79  A    between atoms: _220  and  _221
REMARK   80  A    between atoms: _220  and  _223
REMARK   81  A    between atoms: _223  and  _224
REMARK   82  A    between atoms: _224  and  _225
REMARK   83  A    between atoms: _225  and  _226
REMARK   84  A    between atoms: _235  and  _237
REMARK   85  A    between atoms: _237  and  _238
REMARK   86  A    between atoms: _237  and  _240
REMARK   87  A    between atoms: _243  and  _245
REMARK   88  A    between atoms: _245  and  _246
REMARK   89  A    between atoms: _245  and  _248
REMARK   90  A    between atoms: _248  and  _249
REMARK   91  A    between atoms: _252  and  _254
REMARK   92  A    between atoms: _254  and  _255
REMARK   93  A    between atoms: _254  and  _257
REMARK   94  A    between atoms: _257  and  _258
REMARK   95  A    between atoms: _258  and  _259
REMARK   96  A    between atoms: _262  and  _264
REMARK   97  A    between atoms: _264  and  _265
REMARK   98  A    between atoms: _268  and  _270
REMARK   99  A    between atoms: _270  and  _271
REMARK  100  A    between atoms: _270  and  _273
REMARK  101  A    between atoms: _273  and  _274
REMARK  102  A    between atoms: _277  and  _279
REMARK  103  A    between atoms: _279  and  _280
REMARK  104  A    between atoms: _279  and  _282
REMARK  105  A    between atoms: _282  and  _283
REMARK  106  A    between atoms: _286  and  _288
REMARK  107  A    between atoms: _288  and  _289
REMARK  108  A    between atoms: _292  and  _294
REMARK  109  A    between atoms: _294  and  _295
REMARK  110  A    between atoms: _294  and  _297
REMARK  111  A    between atoms: _300  and  _302
REMARK  112  A    between atoms: _302  and  _303
REMARK  113  A    between atoms: _302  and  _305
REMARK  114  A    between atoms: _305  and  _306
REMARK  115  A    between atoms: _309  and  _311
REMARK  116  A    between atoms: _311  and  _312
REMARK  117  A    between atoms: _315  and  _317
REMARK  118  A    between atoms: _317  and  _318
REMARK  119  A    between atoms: _317  and  _320
REMARK  120  A    between atoms: _320  and  _321
REMARK  121  A    between atoms: _323  and  _325
REMARK  122  A    between atoms: _325  and  _326
REMARK  123  A    between atoms: _325  and  _328
REMARK  124  A    between atoms: _328  and  _329
REMARK  125  A    between atoms: _332  and  _334
REMARK  126  A    between atoms: _334  and  _335
REMARK  127  A    between atoms: _334  and  _337
REMARK  128  A    between atoms: _337  and  _338
REMARK  129  A    between atoms: _341  and  _343
REMARK  130  A    between atoms: _343  and  _344
REMARK  131  A    between atoms: _343  and  _346
REMARK  132  A    between atoms: _346  and  _347
REMARK  133  A    between atoms: _351  and  _352
REMARK  134  A    between atoms: _358  and  _359
REMARK  135  A    between atoms: _364  and  _366
REMARK  136  A    between atoms: _366  and  _367
REMARK  137  A    between atoms: _366  and  _369
REMARK  138  A    between atoms: _371  and  _373
REMARK  139  A    between atoms: _373  and  _374
REMARK  140  A    between atoms: _377  and  _379
REMARK  141  A    between atoms: _379  and  _380
REMARK  142  A    between atoms: _379  and  _382
REMARK  143  A    between atoms: _385  and  _387
REMARK  144  A    between atoms: _387  and  _388
REMARK  145  A    between atoms: _387  and  _390
REMARK  146  A    between atoms: _390  and  _391
REMARK  147  A    between atoms: _401  and  _403
REMARK  148  A    between atoms: _403  and  _404
REMARK  149  A    between atoms: _403  and  _406
REMARK  150  A    between atoms: _406  and  _407
REMARK  151  A    between atoms: _412  and  _414
REMARK  152  A    between atoms: _414  and  _415
REMARK  153  A    between atoms: _414  and  _417
REMARK  154  A    between atoms: _417  and  _418
REMARK  155  A    between atoms: _418  and  _419
REMARK  156  A    between atoms: _419  and  _420
REMARK                            x       y       z     vdW  Elec       q    Type
REMARK                         _______ _______ _______ _____ _____    ______ ____
ROOT
ATOM      1  O   HOH     1     -34.331  -2.212  -0.170  0.00  0.00    +0.000 OA
ENDROOT
TORSDOF 0
REMARK  Name = ../refined-set-2016/5fl5/5fl5_pocket.pdb
REMARK  156 active torsions:
REMARK  status: ('A' for Active; 'I' for Inactive)
REMARK    1  A    between atoms: _1  and  _5
REMARK    2  A    between atoms: _5  and  _6
REMARK    3  A    between atoms: _5  and  _8
REMARK    4  A    between atoms: _8  and  _9
REMARK    5  A    between atoms: _19  and  _21
REMARK    6  A    between atoms: _21  and  _22
REMARK    7  A    between atoms: _21  and  _24
REMARK    8  A    between atoms: _24  and  _25
REMARK    9  A    between atoms: _30  and  _31
REMARK   10  A    between atoms: _33  and  _35
REMARK   11  A    between atoms: _35  and  _36
REMARK   12  A    between atoms: _35  and  _38
REMARK   13  A    between atoms: _38  and  _39
REMARK   14  A    between atoms: _42  and  _43
REMARK   15  A    between atoms: _48  and  _50
REMARK   16  A    between atoms: _50  and  _51
REMARK   17  A    between atoms: _50  and  _53
REMARK   18  A    between atoms: _53  and  _54
REMARK   19  A    between atoms: _59  and  _61
REMARK   20  A    between atoms: _61  and  _62
REMARK   21  A    between atoms: _61  and  _64
REMARK   22  A    between atoms: _64  and  _65
REMARK   23  A    between atoms: _67  and  _69
REMARK   24  A    between atoms: _69  and  _70
REMARK   25  A    between atoms: _69  and  _72
REMARK   26  A    between atoms: _72  and  _73
REMARK   27  A    between atoms: _73  and  _74
REMARK   28  A    between atoms: _79  and  _81
REMARK   29  A    between atoms: _81  and  _82
REMARK   30  A    between atoms: _81  and  _84
REMARK   31  A    between atoms: _84  and  _85
REMARK   32  A    between atoms: _88  and  _90
REMARK   33  A    between atoms: _90  and  _91
REMARK   34  A    between atoms: _90  and  _93
REMARK   35  A    between atoms: _93  and  _94
REMARK   36  A    between atoms: _94  and  _95
REMARK   37  A    between atoms: _100  and  _102
REMARK   38  A    between atoms: _102  and  _103
REMARK   39  A    between atoms: _102  and  _105
REMARK   40  A    between atoms: _105  and  _106
REMARK   41  A    between atoms: _109  and  _111
REMARK   42  A    between atoms: _122  and  _125
REMARK   43  A    between atoms: _125  and  _126
REMARK   44  A    between atoms: _131  and  _132
REMARK   45  A    between atoms: _140  and  _142
REMARK   46  A    between atoms: _142  and  _143
REMARK   47  A    between atoms: _142  and  _145
REMARK   48  A    between atoms: _145  and  _146
REMARK   49  A    between atoms: _146  and  _147
REMARK   50  A    between atoms: _150  and  _152
REMARK   51  A    between atoms: _152  and  _153
REMARK   52  A    between atoms: _152  and  _155
REMARK   53  A    between atoms: _155  and  _156
REMARK   54  A    between atoms: _161  and  _163
REMARK   55  A    between atoms: _163  and  _164
REMARK   56  A    between atoms: _163  and  _166
REMARK   57  A    between atoms: _166  and  _167
REMARK   58  A    between atoms: _167  and  _168
REMARK   59  A    between atoms: _171  and  _173
REMARK   60  A    between atoms: _173  and  _174
REMARK   61  A    between atoms: _173  and  _176
REMARK   62  A    between atoms: _176  and  _177
REMARK   63  A    between atoms: _180  and  _182
REMARK   64  A    between atoms: _182  and  _183
REMARK   65  A    between atoms: _182  and  _185
REMARK   66  A    between atoms: _185  and  _186
REMARK   67  A    between atoms: _187  and  ZN_429
REMARK   68  A    between atoms: _191  and  _193
REMARK   69  A    between atoms: _193  and  _194
REMARK   70  A    between atoms: _193  and  _196
REMARK   71  A    between atoms: _199  and  _201
REMARK   72  A    between atoms: _201  and  _202
REMARK   73  A    between atoms: _201  and  _204
REMARK   74  A    between atoms: _207  and  _209
REMARK   75  A    between atoms: _209  and  _210
REMARK   76  A    between atoms: _209  and  _212
REMARK   77  A    between atoms: _212  and  _213
REMARK   78  A    between atoms: _218  and  _220
REMARK   79  A    between atoms: _220  and  _221
REMARK   80  A    between atoms: _220  and  _223
REMARK   81  A    between atoms: _223  and  _224
REMARK   82  A    between atoms: _224  and  _225
REMARK   83  A    between atoms: _225  and  _226
REMARK   84  A    between atoms: _235  and  _237
REMARK   85  A    between atoms: _237  and  _238
REMARK   86  A    between atoms: _237  and  _240
REMARK   87  A    between atoms: _243  and  _245
REMARK   88  A    between atoms: _245  and  _246
REMARK   89  A    between atoms: _245  and  _248
REMARK   90  A    between atoms: _248  and  _249
REMARK   91  A    between atoms: _252  and  _254
REMARK   92  A    between atoms: _254  and  _255
REMARK   93  A    between atoms: _254  and  _257
REMARK   94  A    between atoms: _257  and  _258
REMARK   95  A    between atoms: _258  and  _259
REMARK   96  A    between atoms: _262  and  _264
REMARK   97  A    between atoms: _264  and  _265
REMARK   98  A    between atoms: _268  and  _270
REMARK   99  A    between atoms: _270  and  _271
REMARK  100  A    between atoms: _270  and  _273
REMARK  101  A    between atoms: _273  and  _274
REMARK  102  A    between atoms: _277  and  _279
REMARK  103  A    between atoms: _279  and  _280
REMARK  104  A    between atoms: _279  and  _282
REMARK  105  A    between atoms: _282  and  _283
REMARK  106  A    between atoms: _286  and  _288
REMARK  107  A    between atoms: _288  and  _289
REMARK  108  A    between atoms: _292  and  _294
REMARK  109  A    between atoms: _294  and  _295
REMARK  110  A    between atoms: _294  and  _297
REMARK  111  A    between atoms: _300  and  _302
REMARK  112  A    between atoms: _302  and  _303
REMARK  113  A    between atoms: _302  and  _305
REMARK  114  A    between atoms: _305  and  _306
REMARK  115  A    between atoms: _309  and  _311
REMARK  116  A    between atoms: _311  and  _312
REMARK  117  A    between atoms: _315  and  _317
REMARK  118  A    between atoms: _317  and  _318
REMARK  119  A    between atoms: _317  and  _320
REMARK  120  A    between atoms: _320  and  _321
REMARK  121  A    between atoms: _323  and  _325
REMARK  122  A    between atoms: _325  and  _326
REMARK  123  A    between atoms: _325  and  _328
REMARK  124  A    between atoms: _328  and  _329
REMARK  125  A    between atoms: _332  and  _334
REMARK  126  A    between atoms: _334  and  _335
REMARK  127  A    between atoms: _334  and  _337
REMARK  128  A    between atoms: _337  and  _338
REMARK  129  A    between atoms: _341  and  _343
REMARK  130  A    between atoms: _343  and  _344
REMARK  131  A    between atoms: _343  and  _346
REMARK  132  A    between atoms: _346  and  _347
REMARK  133  A    between atoms: _351  and  _352
REMARK  134  A    between atoms: _358  and  _359
REMARK  135  A    between atoms: _364  and  _366
REMARK  136  A    between atoms: _366  and  _367
REMARK  137  A    between atoms: _366  and  _369
REMARK  138  A    between atoms: _371  and  _373
REMARK  139  A    between atoms: _373  and  _374
REMARK  140  A    between atoms: _377  and  _379
REMARK  141  A    between atoms: _379  and  _380
REMARK  142  A    between atoms: _379  and  _382
REMARK  143  A    between atoms: _385  and  _387
REMARK  144  A    between atoms: _387  and  _388
REMARK  145  A    between atoms: _387  and  _390
REMARK  146  A    between atoms: _390  and  _391
REMARK  147  A    between atoms: _401  and  _403
REMARK  148  A    between atoms: _403  and  _404
REMARK  149  A    between atoms: _403  and  _406
REMARK  150  A    between atoms: _406  and  _407
REMARK  151  A    between atoms: _412  and  _414
REMARK  152  A    between atoms: _414  and  _415
REMARK  153  A    between atoms: _414  and  _417
REMARK  154  A    between atoms: _417  and  _418
REMARK  155  A    between atoms: _418  and  _419
REMARK  156  A    between atoms: _419  and  _420
REMARK                            x       y       z     vdW  Elec       q    Type
REMARK                         _______ _______ _______ _____ _____    ______ ____
ROOT
ATOM      1  O   HOH     1     -37.398  -2.157  -8.784  0.00  0.00    +0.000 OA
ENDROOT
TORSDOF 0
REMARK  Name = ../refined-set-2016/5fl5/5fl5_pocket.pdb
REMARK  156 active torsions:
REMARK  status: ('A' for Active; 'I' for Inactive)
REMARK    1  A    between atoms: _1  and  _5
REMARK    2  A    between atoms: _5  and  _6
REMARK    3  A    between atoms: _5  and  _8
REMARK    4  A    between atoms: _8  and  _9
REMARK    5  A    between atoms: _19  and  _21
REMARK    6  A    between atoms: _21  and  _22
REMARK    7  A    between atoms: _21  and  _24
REMARK    8  A    between atoms: _24  and  _25
REMARK    9  A    between atoms: _30  and  _31
REMARK   10  A    between atoms: _33  and  _35
REMARK   11  A    between atoms: _35  and  _36
REMARK   12  A    between atoms: _35  and  _38
REMARK   13  A    between atoms: _38  and  _39
REMARK   14  A    between atoms: _42  and  _43
REMARK   15  A    between atoms: _48  and  _50
REMARK   16  A    between atoms: _50  and  _51
REMARK   17  A    between atoms: _50  and  _53
REMARK   18  A    between atoms: _53  and  _54
REMARK   19  A    between atoms: _59  and  _61
REMARK   20  A    between atoms: _61  and  _62
REMARK   21  A    between atoms: _61  and  _64
REMARK   22  A    between atoms: _64  and  _65
REMARK   23  A    between atoms: _67  and  _69
REMARK   24  A    between atoms: _69  and  _70
REMARK   25  A    between atoms: _69  and  _72
REMARK   26  A    between atoms: _72  and  _73
REMARK   27  A    between atoms: _73  and  _74
REMARK   28  A    between atoms: _79  and  _81
REMARK   29  A    between atoms: _81  and  _82
REMARK   30  A    between atoms: _81  and  _84
REMARK   31  A    between atoms: _84  and  _85
REMARK   32  A    between atoms: _88  and  _90
REMARK   33  A    between atoms: _90  and  _91
REMARK   34  A    between atoms: _90  and  _93
REMARK   35  A    between atoms: _93  and  _94
REMARK   36  A    between atoms: _94  and  _95
REMARK   37  A    between atoms: _100  and  _102
REMARK   38  A    between atoms: _102  and  _103
REMARK   39  A    between atoms: _102  and  _105
REMARK   40  A    between atoms: _105  and  _106
REMARK   41  A    between atoms: _109  and  _111
REMARK   42  A    between atoms: _122  and  _125
REMARK   43  A    between atoms: _125  and  _126
REMARK   44  A    between atoms: _131  and  _132
REMARK   45  A    between atoms: _140  and  _142
REMARK   46  A    between atoms: _142  and  _143
REMARK   47  A    between atoms: _142  and  _145
REMARK   48  A    between atoms: _145  and  _146
REMARK   49  A    between atoms: _146  and  _147
REMARK   50  A    between atoms: _150  and  _152
REMARK   51  A    between atoms: _152  and  _153
REMARK   52  A    between atoms: _152  and  _155
REMARK   53  A    between atoms: _155  and  _156
REMARK   54  A    between atoms: _161  and  _163
REMARK   55  A    between atoms: _163  and  _164
REMARK   56  A    between atoms: _163  and  _166
REMARK   57  A    between atoms: _166  and  _167
REMARK   58  A    between atoms: _167  and  _168
REMARK   59  A    between atoms: _171  and  _173
REMARK   60  A    between atoms: _173  and  _174
REMARK   61  A    between atoms: _173  and  _176
REMARK   62  A    between atoms: _176  and  _177
REMARK   63  A    between atoms: _180  and  _182
REMARK   64  A    between atoms: _182  and  _183
REMARK   65  A    between atoms: _182  and  _185
REMARK   66  A    between atoms: _185  and  _186
REMARK   67  A    between atoms: _187  and  ZN_429
REMARK   68  A    between atoms: _191  and  _193
REMARK   69  A    between atoms: _193  and  _194
REMARK   70  A    between atoms: _193  and  _196
REMARK   71  A    between atoms: _199  and  _201
REMARK   72  A    between atoms: _201  and  _202
REMARK   73  A    between atoms: _201  and  _204
REMARK   74  A    between atoms: _207  and  _209
REMARK   75  A    between atoms: _209  and  _210
REMARK   76  A    between atoms: _209  and  _212
REMARK   77  A    between atoms: _212  and  _213
REMARK   78  A    between atoms: _218  and  _220
REMARK   79  A    between atoms: _220  and  _221
REMARK   80  A    between atoms: _220  and  _223
REMARK   81  A    between atoms: _223  and  _224
REMARK   82  A    between atoms: _224  and  _225
REMARK   83  A    between atoms: _225  and  _226
REMARK   84  A    between atoms: _235  and  _237
REMARK   85  A    between atoms: _237  and  _238
REMARK   86  A    between atoms: _237  and  _240
REMARK   87  A    between atoms: _243  and  _245
REMARK   88  A    between atoms: _245  and  _246
REMARK   89  A    between atoms: _245  and  _248
REMARK   90  A    between atoms: _248  and  _249
REMARK   91  A    between atoms: _252  and  _254
REMARK   92  A    between atoms: _254  and  _255
REMARK   93  A    between atoms: _254  and  _257
REMARK   94  A    between atoms: _257  and  _258
REMARK   95  A    between atoms: _258  and  _259
REMARK   96  A    between atoms: _262  and  _264
REMARK   97  A    between atoms: _264  and  _265
REMARK   98  A    between atoms: _268  and  _270
REMARK   99  A    between atoms: _270  and  _271
REMARK  100  A    between atoms: _270  and  _273
REMARK  101  A    between atoms: _273  and  _274
REMARK  102  A    between atoms: _277  and  _279
REMARK  103  A    between atoms: _279  and  _280
REMARK  104  A    between atoms: _279  and  _282
REMARK  105  A    between atoms: _282  and  _283
REMARK  106  A    between atoms: _286  and  _288
REMARK  107  A    between atoms: _288  and  _289
REMARK  108  A    between atoms: _292  and  _294
REMARK  109  A    between atoms: _294  and  _295
REMARK  110  A    between atoms: _294  and  _297
REMARK  111  A    between atoms: _300  and  _302
REMARK  112  A    between atoms: _302  and  _303
REMARK  113  A    between atoms: _302  and  _305
REMARK  114  A    between atoms: _305  and  _306
REMARK  115  A    between atoms: _309  and  _311
REMARK  116  A    between atoms: _311  and  _312
REMARK  117  A    between atoms: _315  and  _317
REMARK  118  A    between atoms: _317  and  _318
REMARK  119  A    between atoms: _317  and  _320
REMARK  120  A    between atoms: _320  and  _321
REMARK  121  A    between atoms: _323  and  _325
REMARK  122  A    between atoms: _325  and  _326
REMARK  123  A    between atoms: _325  and  _328
REMARK  124  A    between atoms: _328  and  _329
REMARK  125  A    between atoms: _332  and  _334
REMARK  126  A    between atoms: _334  and  _335
REMARK  127  A    between atoms: _334  and  _337
REMARK  128  A    between atoms: _337  and  _338
REMARK  129  A    between atoms: _341  and  _343
REMARK  130  A    between atoms: _343  and  _344
REMARK  131  A    between atoms: _343  and  _346
REMARK  132  A    between atoms: _346  and  _347
REMARK  133  A    between atoms: _351  and  _352
REMARK  134  A    between atoms: _358  and  _359
REMARK  135  A    between atoms: _364  and  _366
REMARK  136  A    between atoms: _366  and  _367
REMARK  137  A    between atoms: _366  and  _369
REMARK  138  A    between atoms: _371  and  _373
REMARK  139  A    between atoms: _373  and  _374
REMARK  140  A    between atoms: _377  and  _379
REMARK  141  A    between atoms: _379  and  _380
REMARK  142  A    between atoms: _379  and  _382
REMARK  143  A    between atoms: _385  and  _387
REMARK  144  A    between atoms: _387  and  _388
REMARK  145  A    between atoms: _387  and  _390
REMARK  146  A    between atoms: _390  and  _391
REMARK  147  A    between atoms: _401  and  _403
REMARK  148  A    between atoms: _403  and  _404
REMARK  149  A    between atoms: _403  and  _406
REMARK  150  A    between atoms: _406  and  _407
REMARK  151  A    between atoms: _412  and  _414
REMARK  152  A    between atoms: _414  and  _415
REMARK  153  A    between atoms: _414  and  _417
REMARK  154  A    between atoms: _417  and  _418
REMARK  155  A    between atoms: _418  and  _419
REMARK  156  A    between atoms: _419  and  _420
REMARK                            x       y       z     vdW  Elec       q    Type
REMARK                         _______ _______ _______ _____ _____    ______ ____
ROOT
ATOM      1  O   HOH     1     -29.269   3.407   0.088  0.00  0.00    +0.000 OA
ENDROOT
TORSDOF 0
