REMARK  Name = ../refined-set-2016/3a5y/3a5y_pocket.pdb
REMARK  262 active torsions:
REMARK  status: ('A' for Active; 'I' for Inactive)
REMARK    1  A    between atoms: _1  and  _3
REMARK    2  A    between atoms: _3  and  _4
REMARK    3  A    between atoms: _3  and  _6
REMARK    4  A    between atoms: _9  and  _11
REMARK    5  A    between atoms: _11  and  _12
REMARK    6  A    between atoms: _11  and  _14
REMARK    7  A    between atoms: _14  and  _15
REMARK    8  A    between atoms: _18  and  _20
REMARK    9  A    between atoms: _20  and  _21
REMARK   10  A    between atoms: _20  and  _23
REMARK   11  A    between atoms: _23  and  _24
REMARK   12  A    between atoms: _29  and  _31
REMARK   13  A    between atoms: _31  and  _32
REMARK   14  A    between atoms: _31  and  _34
REMARK   15  A    between atoms: _34  and  _35
REMARK   16  A    between atoms: _38  and  _40
REMARK   17  A    between atoms: _40  and  _41
REMARK   18  A    between atoms: _40  and  _43
REMARK   19  A    between atoms: _43  and  _44
REMARK   20  A    between atoms: _47  and  _49
REMARK   21  A    between atoms: _49  and  _50
REMARK   22  A    between atoms: _49  and  _52
REMARK   23  A    between atoms: _52  and  _53
REMARK   24  A    between atoms: _56  and  _57
REMARK   25  A    between atoms: _62  and  _64
REMARK   26  A    between atoms: _64  and  _65
REMARK   27  A    between atoms: _64  and  _67
REMARK   28  A    between atoms: _67  and  _68
REMARK   29  A    between atoms: _68  and  _69
REMARK   30  A    between atoms: _72  and  _74
REMARK   31  A    between atoms: _74  and  _75
REMARK   32  A    between atoms: _74  and  _77
REMARK   33  A    between atoms: _77  and  _78
REMARK   34  A    between atoms: _83  and  _84
REMARK   35  A    between atoms: _86  and  _88
REMARK   36  A    between atoms: _88  and  _89
REMARK   37  A    between atoms: _88  and  _91
REMARK   38  A    between atoms: _91  and  _92
REMARK   39  A    between atoms: _92  and  _93
REMARK   40  A    between atoms: _95  and  _97
REMARK   41  A    between atoms: _97  and  _98
REMARK   42  A    between atoms: _97  and  _100
REMARK   43  A    between atoms: _100  and  _101
REMARK   44  A    between atoms: _101  and  _102
REMARK   45  A    between atoms: _102  and  _103
REMARK   46  A    between atoms: _103  and  _104
REMARK   47  A    between atoms: _108  and  _110
REMARK   48  A    between atoms: _110  and  _111
REMARK   49  A    between atoms: _110  and  _113
REMARK   50  A    between atoms: _113  and  _114
REMARK   51  A    between atoms: _116  and  _118
REMARK   52  A    between atoms: _118  and  _119
REMARK   53  A    between atoms: _118  and  _121
REMARK   54  A    between atoms: _121  and  _122
REMARK   55  A    between atoms: _128  and  _130
REMARK   56  A    between atoms: _130  and  _131
REMARK   57  A    between atoms: _130  and  _133
REMARK   58  A    between atoms: _133  and  _134
REMARK   59  A    between atoms: _134  and  _135
REMARK   60  A    between atoms: _135  and  _136
REMARK   61  A    between atoms: _145  and  _147
REMARK   62  A    between atoms: _147  and  _148
REMARK   63  A    between atoms: _147  and  _150
REMARK   64  A    between atoms: _150  and  _151
REMARK   65  A    between atoms: _156  and  _158
REMARK   66  A    between atoms: _158  and  _159
REMARK   67  A    between atoms: _158  and  _161
REMARK   68  A    between atoms: _161  and  _162
REMARK   69  A    between atoms: _162  and  _163
REMARK   70  A    between atoms: _166  and  _168
REMARK   71  A    between atoms: _168  and  _169
REMARK   72  A    between atoms: _168  and  _171
REMARK   73  A    between atoms: _171  and  _172
REMARK   74  A    between atoms: _172  and  _173
REMARK   75  A    between atoms: _176  and  _178
REMARK   76  A    between atoms: _178  and  _179
REMARK   77  A    between atoms: _178  and  _181
REMARK   78  A    between atoms: _181  and  _182
REMARK   79  A    between atoms: _182  and  _183
REMARK   80  A    between atoms: _185  and  _187
REMARK   81  A    between atoms: _187  and  _188
REMARK   82  A    between atoms: _190  and  _192
REMARK   83  A    between atoms: _192  and  _193
REMARK   84  A    between atoms: _192  and  _195
REMARK   85  A    between atoms: _195  and  _196
REMARK   86  A    between atoms: _196  and  _197
REMARK   87  A    between atoms: _197  and  _198
REMARK   88  A    between atoms: _207  and  _209
REMARK   89  A    between atoms: _209  and  _210
REMARK   90  A    between atoms: _209  and  _212
REMARK   91  A    between atoms: _212  and  _213
REMARK   92  A    between atoms: _218  and  _219
REMARK   93  A    between atoms: _221  and  _223
REMARK   94  A    between atoms: _223  and  _224
REMARK   95  A    between atoms: _223  and  _226
REMARK   96  A    between atoms: _226  and  _227
REMARK   97  A    between atoms: _232  and  _234
REMARK   98  A    between atoms: _234  and  _235
REMARK   99  A    between atoms: _234  and  _237
REMARK  100  A    between atoms: _237  and  _238
REMARK  101  A    between atoms: _244  and  _245
REMARK  102  A    between atoms: _250  and  _252
REMARK  103  A    between atoms: _252  and  _253
REMARK  104  A    between atoms: _252  and  _255
REMARK  105  A    between atoms: _255  and  _256
REMARK  106  A    between atoms: _256  and  _257
REMARK  107  A    between atoms: _260  and  _262
REMARK  108  A    between atoms: _262  and  _263
REMARK  109  A    between atoms: _262  and  _265
REMARK  110  A    between atoms: _265  and  _266
REMARK  111  A    between atoms: _272  and  _274
REMARK  112  A    between atoms: _274  and  _275
REMARK  113  A    between atoms: _274  and  _277
REMARK  114  A    between atoms: _277  and  _278
REMARK  115  A    between atoms: _281  and  _283
REMARK  116  A    between atoms: _283  and  _284
REMARK  117  A    between atoms: _283  and  _286
REMARK  118  A    between atoms: _286  and  _287
REMARK  119  A    between atoms: _287  and  _288
REMARK  120  A    between atoms: _290  and  _292
REMARK  121  A    between atoms: _292  and  _293
REMARK  122  A    between atoms: _292  and  _295
REMARK  123  A    between atoms: _295  and  _296
REMARK  124  A    between atoms: _299  and  _301
REMARK  125  A    between atoms: _301  and  _302
REMARK  126  A    between atoms: _301  and  _304
REMARK  127  A    between atoms: _304  and  _305
REMARK  128  A    between atoms: _305  and  _306
REMARK  129  A    between atoms: _309  and  _311
REMARK  130  A    between atoms: _311  and  _312
REMARK  131  A    between atoms: _311  and  _314
REMARK  132  A    between atoms: _314  and  _315
REMARK  133  A    between atoms: _325  and  _327
REMARK  134  A    between atoms: _327  and  _328
REMARK  135  A    between atoms: _327  and  _330
REMARK  136  A    between atoms: _330  and  _331
REMARK  137  A    between atoms: _336  and  _337
REMARK  138  A    between atoms: _339  and  _341
REMARK  139  A    between atoms: _341  and  _342
REMARK  140  A    between atoms: _341  and  _344
REMARK  141  A    between atoms: _344  and  _345
REMARK  142  A    between atoms: _348  and  _350
REMARK  143  A    between atoms: _350  and  _351
REMARK  144  A    between atoms: _350  and  _353
REMARK  145  A    between atoms: _353  and  _354
REMARK  146  A    between atoms: _356  and  _358
REMARK  147  A    between atoms: _358  and  _359
REMARK  148  A    between atoms: _358  and  _361
REMARK  149  A    between atoms: _361  and  _362
REMARK  150  A    between atoms: _365  and  _367
REMARK  151  A    between atoms: _367  and  _368
REMARK  152  A    between atoms: _371  and  _373
REMARK  153  A    between atoms: _373  and  _374
REMARK  154  A    between atoms: _373  and  _376
REMARK  155  A    between atoms: _376  and  _377
REMARK  156  A    between atoms: _377  and  _378
REMARK  157  A    between atoms: _381  and  _383
REMARK  158  A    between atoms: _383  and  _384
REMARK  159  A    between atoms: _383  and  _386
REMARK  160  A    between atoms: _386  and  _387
REMARK  161  A    between atoms: _387  and  _388
REMARK  162  A    between atoms: _388  and  _389
REMARK  163  A    between atoms: _398  and  _400
REMARK  164  A    between atoms: _400  and  _401
REMARK  165  A    between atoms: _400  and  _403
REMARK  166  A    between atoms: _403  and  _404
REMARK  167  A    between atoms: _410  and  _412
REMARK  168  A    between atoms: _412  and  _413
REMARK  169  A    between atoms: _412  and  _415
REMARK  170  A    between atoms: _415  and  _416
REMARK  171  A    between atoms: _416  and  _417
REMARK  172  A    between atoms: _420  and  _422
REMARK  173  A    between atoms: _422  and  _423
REMARK  174  A    between atoms: _422  and  _425
REMARK  175  A    between atoms: _428  and  _430
REMARK  176  A    between atoms: _430  and  _431
REMARK  177  A    between atoms: _430  and  _433
REMARK  178  A    between atoms: _433  and  _434
REMARK  179  A    between atoms: _439  and  _440
REMARK  180  A    between atoms: _442  and  _444
REMARK  181  A    between atoms: _444  and  _445
REMARK  182  A    between atoms: _444  and  _447
REMARK  183  A    between atoms: _447  and  _448
REMARK  184  A    between atoms: _451  and  _453
REMARK  185  A    between atoms: _453  and  _454
REMARK  186  A    between atoms: _453  and  _456
REMARK  187  A    between atoms: _456  and  _457
REMARK  188  A    between atoms: _457  and  _458
REMARK  189  A    between atoms: _461  and  _463
REMARK  190  A    between atoms: _463  and  _464
REMARK  191  A    between atoms: _463  and  _466
REMARK  192  A    between atoms: _466  and  _467
REMARK  193  A    between atoms: _470  and  _472
REMARK  194  A    between atoms: _472  and  _473
REMARK  195  A    between atoms: _476  and  _478
REMARK  196  A    between atoms: _478  and  _479
REMARK  197  A    between atoms: _478  and  _481
REMARK  198  A    between atoms: _481  and  _482
REMARK  199  A    between atoms: _487  and  _489
REMARK  200  A    between atoms: _489  and  _490
REMARK  201  A    between atoms: _492  and  _494
REMARK  202  A    between atoms: _494  and  _495
REMARK  203  A    between atoms: _494  and  _497
REMARK  204  A    between atoms: _497  and  _498
REMARK  205  A    between atoms: _504  and  _506
REMARK  206  A    between atoms: _506  and  _507
REMARK  207  A    between atoms: _506  and  _509
REMARK  208  A    between atoms: _509  and  _510
REMARK  209  A    between atoms: _515  and  _517
REMARK  210  A    between atoms: _517  and  _518
REMARK  211  A    between atoms: _517  and  _520
REMARK  212  A    between atoms: _520  and  _521
REMARK  213  A    between atoms: _521  and  _522
REMARK  214  A    between atoms: _525  and  _527
REMARK  215  A    between atoms: _527  and  _528
REMARK  216  A    between atoms: _527  and  _530
REMARK  217  A    between atoms: _530  and  _531
REMARK  218  A    between atoms: _534  and  _536
REMARK  219  A    between atoms: _536  and  _537
REMARK  220  A    between atoms: _536  and  _539
REMARK  221  A    between atoms: _541  and  _543
REMARK  222  A    between atoms: _543  and  _544
REMARK  223  A    between atoms: _543  and  _546
REMARK  224  A    between atoms: _546  and  _547
REMARK  225  A    between atoms: _549  and  _551
REMARK  226  A    between atoms: _551  and  _552
REMARK  227  A    between atoms: _554  and  _556
REMARK  228  A    between atoms: _556  and  _557
REMARK  229  A    between atoms: _556  and  _559
REMARK  230  A    between atoms: _562  and  _564
REMARK  231  A    between atoms: _564  and  _565
REMARK  232  A    between atoms: _568  and  _570
REMARK  233  A    between atoms: _570  and  _571
REMARK  234  A    between atoms: _570  and  _573
REMARK  235  A    between atoms: _573  and  _574
REMARK  236  A    between atoms: _577  and  _579
REMARK  237  A    between atoms: _579  and  _580
REMARK  238  A    between atoms: _582  and  _584
REMARK  239  A    between atoms: _584  and  _585
REMARK  240  A    between atoms: _584  and  _587
REMARK  241  A    between atoms: _590  and  _592
REMARK  242  A    between atoms: _592  and  _593
REMARK  243  A    between atoms: _592  and  _595
REMARK  244  A    between atoms: _595  and  _596
REMARK  245  A    between atoms: _599  and  _601
REMARK  246  A    between atoms: _601  and  _602
REMARK  247  A    between atoms: _601  and  _604
REMARK  248  A    between atoms: _604  and  _605
REMARK  249  A    between atoms: _605  and  _606
REMARK  250  A    between atoms: _606  and  _607
REMARK  251  A    between atoms: _616  and  _618
REMARK  252  A    between atoms: _618  and  _619
REMARK  253  A    between atoms: _618  and  _621
REMARK  254  A    between atoms: _621  and  _622
REMARK  255  A    between atoms: _625  and  _627
REMARK  256  A    between atoms: _627  and  _628
REMARK  257  A    between atoms: _627  and  _630
REMARK  258  A    between atoms: _630  and  _631
REMARK  259  A    between atoms: _634  and  _636
REMARK  260  A    between atoms: _636  and  _637
REMARK  261  A    between atoms: _636  and  _639
REMARK  262  A    between atoms: _639  and  _640
REMARK                            x       y       z     vdW  Elec       q    Type
REMARK                         _______ _______ _______ _____ _____    ______ ____
ROOT
ATOM      1  CA  VAL A   1      -8.766  -8.959  -7.175  0.00  0.00    +0.133 C 
ENDROOT
BRANCH   1   2
ATOM      2  CB  VAL A   1      -7.752  -7.839  -6.810  0.00  0.00    +0.023 C 
ATOM      3  CG2 VAL A   1      -6.736  -8.360  -5.794  0.00  0.00    +0.002 C 
ATOM      4  CG1 VAL A   1      -7.043  -7.352  -8.064  0.00  0.00    +0.002 C 
ENDBRANCH   1   2
BRANCH   1   5
ATOM      5  N   VAL A   1      -8.122 -10.066  -7.873  0.00  0.00    -0.239 NA
ATOM      6  H   VAL A   1      -7.475  -9.878  -8.665  0.00  0.00    +0.142 HD
ENDBRANCH   1   5
BRANCH   1   7
ATOM      7  C   VAL A   1      -9.880  -8.352  -8.015  0.00  0.00    +0.224 C 
ATOM      8  O   VAL A   1      -9.814  -8.338  -9.234  0.00  0.00    -0.287 OA
ENDBRANCH   1   7
TORSDOF 3
REMARK  Name = ../refined-set-2016/3a5y/3a5y_pocket.pdb
REMARK  262 active torsions:
REMARK  status: ('A' for Active; 'I' for Inactive)
REMARK    1  A    between atoms: _1  and  _3
REMARK    2  A    between atoms: _3  and  _4
REMARK    3  A    between atoms: _3  and  _6
REMARK    4  A    between atoms: _9  and  _11
REMARK    5  A    between atoms: _11  and  _12
REMARK    6  A    between atoms: _11  and  _14
REMARK    7  A    between atoms: _14  and  _15
REMARK    8  A    between atoms: _18  and  _20
REMARK    9  A    between atoms: _20  and  _21
REMARK   10  A    between atoms: _20  and  _23
REMARK   11  A    between atoms: _23  and  _24
REMARK   12  A    between atoms: _29  and  _31
REMARK   13  A    between atoms: _31  and  _32
REMARK   14  A    between atoms: _31  and  _34
REMARK   15  A    between atoms: _34  and  _35
REMARK   16  A    between atoms: _38  and  _40
REMARK   17  A    between atoms: _40  and  _41
REMARK   18  A    between atoms: _40  and  _43
REMARK   19  A    between atoms: _43  and  _44
REMARK   20  A    between atoms: _47  and  _49
REMARK   21  A    between atoms: _49  and  _50
REMARK   22  A    between atoms: _49  and  _52
REMARK   23  A    between atoms: _52  and  _53
REMARK   24  A    between atoms: _56  and  _57
REMARK   25  A    between atoms: _62  and  _64
REMARK   26  A    between atoms: _64  and  _65
REMARK   27  A    between atoms: _64  and  _67
REMARK   28  A    between atoms: _67  and  _68
REMARK   29  A    between atoms: _68  and  _69
REMARK   30  A    between atoms: _72  and  _74
REMARK   31  A    between atoms: _74  and  _75
REMARK   32  A    between atoms: _74  and  _77
REMARK   33  A    between atoms: _77  and  _78
REMARK   34  A    between atoms: _83  and  _84
REMARK   35  A    between atoms: _86  and  _88
REMARK   36  A    between atoms: _88  and  _89
REMARK   37  A    between atoms: _88  and  _91
REMARK   38  A    between atoms: _91  and  _92
REMARK   39  A    between atoms: _92  and  _93
REMARK   40  A    between atoms: _95  and  _97
REMARK   41  A    between atoms: _97  and  _98
REMARK   42  A    between atoms: _97  and  _100
REMARK   43  A    between atoms: _100  and  _101
REMARK   44  A    between atoms: _101  and  _102
REMARK   45  A    between atoms: _102  and  _103
REMARK   46  A    between atoms: _103  and  _104
REMARK   47  A    between atoms: _108  and  _110
REMARK   48  A    between atoms: _110  and  _111
REMARK   49  A    between atoms: _110  and  _113
REMARK   50  A    between atoms: _113  and  _114
REMARK   51  A    between atoms: _116  and  _118
REMARK   52  A    between atoms: _118  and  _119
REMARK   53  A    between atoms: _118  and  _121
REMARK   54  A    between atoms: _121  and  _122
REMARK   55  A    between atoms: _128  and  _130
REMARK   56  A    between atoms: _130  and  _131
REMARK   57  A    between atoms: _130  and  _133
REMARK   58  A    between atoms: _133  and  _134
REMARK   59  A    between atoms: _134  and  _135
REMARK   60  A    between atoms: _135  and  _136
REMARK   61  A    between atoms: _145  and  _147
REMARK   62  A    between atoms: _147  and  _148
REMARK   63  A    between atoms: _147  and  _150
REMARK   64  A    between atoms: _150  and  _151
REMARK   65  A    between atoms: _156  and  _158
REMARK   66  A    between atoms: _158  and  _159
REMARK   67  A    between atoms: _158  and  _161
REMARK   68  A    between atoms: _161  and  _162
REMARK   69  A    between atoms: _162  and  _163
REMARK   70  A    between atoms: _166  and  _168
REMARK   71  A    between atoms: _168  and  _169
REMARK   72  A    between atoms: _168  and  _171
REMARK   73  A    between atoms: _171  and  _172
REMARK   74  A    between atoms: _172  and  _173
REMARK   75  A    between atoms: _176  and  _178
REMARK   76  A    between atoms: _178  and  _179
REMARK   77  A    between atoms: _178  and  _181
REMARK   78  A    between atoms: _181  and  _182
REMARK   79  A    between atoms: _182  and  _183
REMARK   80  A    between atoms: _185  and  _187
REMARK   81  A    between atoms: _187  and  _188
REMARK   82  A    between atoms: _190  and  _192
REMARK   83  A    between atoms: _192  and  _193
REMARK   84  A    between atoms: _192  and  _195
REMARK   85  A    between atoms: _195  and  _196
REMARK   86  A    between atoms: _196  and  _197
REMARK   87  A    between atoms: _197  and  _198
REMARK   88  A    between atoms: _207  and  _209
REMARK   89  A    between atoms: _209  and  _210
REMARK   90  A    between atoms: _209  and  _212
REMARK   91  A    between atoms: _212  and  _213
REMARK   92  A    between atoms: _218  and  _219
REMARK   93  A    between atoms: _221  and  _223
REMARK   94  A    between atoms: _223  and  _224
REMARK   95  A    between atoms: _223  and  _226
REMARK   96  A    between atoms: _226  and  _227
REMARK   97  A    between atoms: _232  and  _234
REMARK   98  A    between atoms: _234  and  _235
REMARK   99  A    between atoms: _234  and  _237
REMARK  100  A    between atoms: _237  and  _238
REMARK  101  A    between atoms: _244  and  _245
REMARK  102  A    between atoms: _250  and  _252
REMARK  103  A    between atoms: _252  and  _253
REMARK  104  A    between atoms: _252  and  _255
REMARK  105  A    between atoms: _255  and  _256
REMARK  106  A    between atoms: _256  and  _257
REMARK  107  A    between atoms: _260  and  _262
REMARK  108  A    between atoms: _262  and  _263
REMARK  109  A    between atoms: _262  and  _265
REMARK  110  A    between atoms: _265  and  _266
REMARK  111  A    between atoms: _272  and  _274
REMARK  112  A    between atoms: _274  and  _275
REMARK  113  A    between atoms: _274  and  _277
REMARK  114  A    between atoms: _277  and  _278
REMARK  115  A    between atoms: _281  and  _283
REMARK  116  A    between atoms: _283  and  _284
REMARK  117  A    between atoms: _283  and  _286
REMARK  118  A    between atoms: _286  and  _287
REMARK  119  A    between atoms: _287  and  _288
REMARK  120  A    between atoms: _290  and  _292
REMARK  121  A    between atoms: _292  and  _293
REMARK  122  A    between atoms: _292  and  _295
REMARK  123  A    between atoms: _295  and  _296
REMARK  124  A    between atoms: _299  and  _301
REMARK  125  A    between atoms: _301  and  _302
REMARK  126  A    between atoms: _301  and  _304
REMARK  127  A    between atoms: _304  and  _305
REMARK  128  A    between atoms: _305  and  _306
REMARK  129  A    between atoms: _309  and  _311
REMARK  130  A    between atoms: _311  and  _312
REMARK  131  A    between atoms: _311  and  _314
REMARK  132  A    between atoms: _314  and  _315
REMARK  133  A    between atoms: _325  and  _327
REMARK  134  A    between atoms: _327  and  _328
REMARK  135  A    between atoms: _327  and  _330
REMARK  136  A    between atoms: _330  and  _331
REMARK  137  A    between atoms: _336  and  _337
REMARK  138  A    between atoms: _339  and  _341
REMARK  139  A    between atoms: _341  and  _342
REMARK  140  A    between atoms: _341  and  _344
REMARK  141  A    between atoms: _344  and  _345
REMARK  142  A    between atoms: _348  and  _350
REMARK  143  A    between atoms: _350  and  _351
REMARK  144  A    between atoms: _350  and  _353
REMARK  145  A    between atoms: _353  and  _354
REMARK  146  A    between atoms: _356  and  _358
REMARK  147  A    between atoms: _358  and  _359
REMARK  148  A    between atoms: _358  and  _361
REMARK  149  A    between atoms: _361  and  _362
REMARK  150  A    between atoms: _365  and  _367
REMARK  151  A    between atoms: _367  and  _368
REMARK  152  A    between atoms: _371  and  _373
REMARK  153  A    between atoms: _373  and  _374
REMARK  154  A    between atoms: _373  and  _376
REMARK  155  A    between atoms: _376  and  _377
REMARK  156  A    between atoms: _377  and  _378
REMARK  157  A    between atoms: _381  and  _383
REMARK  158  A    between atoms: _383  and  _384
REMARK  159  A    between atoms: _383  and  _386
REMARK  160  A    between atoms: _386  and  _387
REMARK  161  A    between atoms: _387  and  _388
REMARK  162  A    between atoms: _388  and  _389
REMARK  163  A    between atoms: _398  and  _400
REMARK  164  A    between atoms: _400  and  _401
REMARK  165  A    between atoms: _400  and  _403
REMARK  166  A    between atoms: _403  and  _404
REMARK  167  A    between atoms: _410  and  _412
REMARK  168  A    between atoms: _412  and  _413
REMARK  169  A    between atoms: _412  and  _415
REMARK  170  A    between atoms: _415  and  _416
REMARK  171  A    between atoms: _416  and  _417
REMARK  172  A    between atoms: _420  and  _422
REMARK  173  A    between atoms: _422  and  _423
REMARK  174  A    between atoms: _422  and  _425
REMARK  175  A    between atoms: _428  and  _430
REMARK  176  A    between atoms: _430  and  _431
REMARK  177  A    between atoms: _430  and  _433
REMARK  178  A    between atoms: _433  and  _434
REMARK  179  A    between atoms: _439  and  _440
REMARK  180  A    between atoms: _442  and  _444
REMARK  181  A    between atoms: _444  and  _445
REMARK  182  A    between atoms: _444  and  _447
REMARK  183  A    between atoms: _447  and  _448
REMARK  184  A    between atoms: _451  and  _453
REMARK  185  A    between atoms: _453  and  _454
REMARK  186  A    between atoms: _453  and  _456
REMARK  187  A    between atoms: _456  and  _457
REMARK  188  A    between atoms: _457  and  _458
REMARK  189  A    between atoms: _461  and  _463
REMARK  190  A    between atoms: _463  and  _464
REMARK  191  A    between atoms: _463  and  _466
REMARK  192  A    between atoms: _466  and  _467
REMARK  193  A    between atoms: _470  and  _472
REMARK  194  A    between atoms: _472  and  _473
REMARK  195  A    between atoms: _476  and  _478
REMARK  196  A    between atoms: _478  and  _479
REMARK  197  A    between atoms: _478  and  _481
REMARK  198  A    between atoms: _481  and  _482
REMARK  199  A    between atoms: _487  and  _489
REMARK  200  A    between atoms: _489  and  _490
REMARK  201  A    between atoms: _492  and  _494
REMARK  202  A    between atoms: _494  and  _495
REMARK  203  A    between atoms: _494  and  _497
REMARK  204  A    between atoms: _497  and  _498
REMARK  205  A    between atoms: _504  and  _506
REMARK  206  A    between atoms: _506  and  _507
REMARK  207  A    between atoms: _506  and  _509
REMARK  208  A    between atoms: _509  and  _510
REMARK  209  A    between atoms: _515  and  _517
REMARK  210  A    between atoms: _517  and  _518
REMARK  211  A    between atoms: _517  and  _520
REMARK  212  A    between atoms: _520  and  _521
REMARK  213  A    between atoms: _521  and  _522
REMARK  214  A    between atoms: _525  and  _527
REMARK  215  A    between atoms: _527  and  _528
REMARK  216  A    between atoms: _527  and  _530
REMARK  217  A    between atoms: _530  and  _531
REMARK  218  A    between atoms: _534  and  _536
REMARK  219  A    between atoms: _536  and  _537
REMARK  220  A    between atoms: _536  and  _539
REMARK  221  A    between atoms: _541  and  _543
REMARK  222  A    between atoms: _543  and  _544
REMARK  223  A    between atoms: _543  and  _546
REMARK  224  A    between atoms: _546  and  _547
REMARK  225  A    between atoms: _549  and  _551
REMARK  226  A    between atoms: _551  and  _552
REMARK  227  A    between atoms: _554  and  _556
REMARK  228  A    between atoms: _556  and  _557
REMARK  229  A    between atoms: _556  and  _559
REMARK  230  A    between atoms: _562  and  _564
REMARK  231  A    between atoms: _564  and  _565
REMARK  232  A    between atoms: _568  and  _570
REMARK  233  A    between atoms: _570  and  _571
REMARK  234  A    between atoms: _570  and  _573
REMARK  235  A    between atoms: _573  and  _574
REMARK  236  A    between atoms: _577  and  _579
REMARK  237  A    between atoms: _579  and  _580
REMARK  238  A    between atoms: _582  and  _584
REMARK  239  A    between atoms: _584  and  _585
REMARK  240  A    between atoms: _584  and  _587
REMARK  241  A    between atoms: _590  and  _592
REMARK  242  A    between atoms: _592  and  _593
REMARK  243  A    between atoms: _592  and  _595
REMARK  244  A    between atoms: _595  and  _596
REMARK  245  A    between atoms: _599  and  _601
REMARK  246  A    between atoms: _601  and  _602
REMARK  247  A    between atoms: _601  and  _604
REMARK  248  A    between atoms: _604  and  _605
REMARK  249  A    between atoms: _605  and  _606
REMARK  250  A    between atoms: _606  and  _607
REMARK  251  A    between atoms: _616  and  _618
REMARK  252  A    between atoms: _618  and  _619
REMARK  253  A    between atoms: _618  and  _621
REMARK  254  A    between atoms: _621  and  _622
REMARK  255  A    between atoms: _625  and  _627
REMARK  256  A    between atoms: _627  and  _628
REMARK  257  A    between atoms: _627  and  _630
REMARK  258  A    between atoms: _630  and  _631
REMARK  259  A    between atoms: _634  and  _636
REMARK  260  A    between atoms: _636  and  _637
REMARK  261  A    between atoms: _636  and  _639
REMARK  262  A    between atoms: _639  and  _640
REMARK                            x       y       z     vdW  Elec       q    Type
REMARK                         _______ _______ _______ _____ _____    ______ ____
ROOT
ATOM      1  CA  ASP A   1     -10.469  -3.814  -7.296  0.00  0.00    +0.144 C 
ENDROOT
BRANCH   1   2
ATOM      2  N   ASP A   1     -10.796  -5.236  -7.324  0.00  0.00    -0.239 NA
ATOM      3  H   ASP A   1     -10.219  -5.898  -6.766  0.00  0.00    +0.142 HD
ENDBRANCH   1   2
BRANCH   1   4
ATOM      4  C   ASP A   1     -10.622  -3.322  -8.722  0.00  0.00    +0.225 C 
ATOM      5  O   ASP A   1      -9.941  -3.785  -9.644  0.00  0.00    -0.287 OA
ENDBRANCH   1   4
BRANCH   1   6
ATOM      6  CB  ASP A   1      -9.032  -3.600  -6.812  0.00  0.00    +0.139 C 
BRANCH   6   7
ATOM      7  CG  ASP A   1      -8.720  -2.139  -6.540  0.00  0.00    +0.367 C 
ATOM      8  OD2 ASP A   1      -8.652  -1.758  -5.352  0.00  0.00    -0.246 OA
ATOM      9  OD1 ASP A   1      -8.552  -1.366  -7.507  0.00  0.00    -0.246 OA
ENDBRANCH   6   7
ENDBRANCH   1   6
TORSDOF 4
REMARK  Name = ../refined-set-2016/3a5y/3a5y_pocket.pdb
REMARK  262 active torsions:
REMARK  status: ('A' for Active; 'I' for Inactive)
REMARK    1  A    between atoms: _1  and  _3
REMARK    2  A    between atoms: _3  and  _4
REMARK    3  A    between atoms: _3  and  _6
REMARK    4  A    between atoms: _9  and  _11
REMARK    5  A    between atoms: _11  and  _12
REMARK    6  A    between atoms: _11  and  _14
REMARK    7  A    between atoms: _14  and  _15
REMARK    8  A    between atoms: _18  and  _20
REMARK    9  A    between atoms: _20  and  _21
REMARK   10  A    between atoms: _20  and  _23
REMARK   11  A    between atoms: _23  and  _24
REMARK   12  A    between atoms: _29  and  _31
REMARK   13  A    between atoms: _31  and  _32
REMARK   14  A    between atoms: _31  and  _34
REMARK   15  A    between atoms: _34  and  _35
REMARK   16  A    between atoms: _38  and  _40
REMARK   17  A    between atoms: _40  and  _41
REMARK   18  A    between atoms: _40  and  _43
REMARK   19  A    between atoms: _43  and  _44
REMARK   20  A    between atoms: _47  and  _49
REMARK   21  A    between atoms: _49  and  _50
REMARK   22  A    between atoms: _49  and  _52
REMARK   23  A    between atoms: _52  and  _53
REMARK   24  A    between atoms: _56  and  _57
REMARK   25  A    between atoms: _62  and  _64
REMARK   26  A    between atoms: _64  and  _65
REMARK   27  A    between atoms: _64  and  _67
REMARK   28  A    between atoms: _67  and  _68
REMARK   29  A    between atoms: _68  and  _69
REMARK   30  A    between atoms: _72  and  _74
REMARK   31  A    between atoms: _74  and  _75
REMARK   32  A    between atoms: _74  and  _77
REMARK   33  A    between atoms: _77  and  _78
REMARK   34  A    between atoms: _83  and  _84
REMARK   35  A    between atoms: _86  and  _88
REMARK   36  A    between atoms: _88  and  _89
REMARK   37  A    between atoms: _88  and  _91
REMARK   38  A    between atoms: _91  and  _92
REMARK   39  A    between atoms: _92  and  _93
REMARK   40  A    between atoms: _95  and  _97
REMARK   41  A    between atoms: _97  and  _98
REMARK   42  A    between atoms: _97  and  _100
REMARK   43  A    between atoms: _100  and  _101
REMARK   44  A    between atoms: _101  and  _102
REMARK   45  A    between atoms: _102  and  _103
REMARK   46  A    between atoms: _103  and  _104
REMARK   47  A    between atoms: _108  and  _110
REMARK   48  A    between atoms: _110  and  _111
REMARK   49  A    between atoms: _110  and  _113
REMARK   50  A    between atoms: _113  and  _114
REMARK   51  A    between atoms: _116  and  _118
REMARK   52  A    between atoms: _118  and  _119
REMARK   53  A    between atoms: _118  and  _121
REMARK   54  A    between atoms: _121  and  _122
REMARK   55  A    between atoms: _128  and  _130
REMARK   56  A    between atoms: _130  and  _131
REMARK   57  A    between atoms: _130  and  _133
REMARK   58  A    between atoms: _133  and  _134
REMARK   59  A    between atoms: _134  and  _135
REMARK   60  A    between atoms: _135  and  _136
REMARK   61  A    between atoms: _145  and  _147
REMARK   62  A    between atoms: _147  and  _148
REMARK   63  A    between atoms: _147  and  _150
REMARK   64  A    between atoms: _150  and  _151
REMARK   65  A    between atoms: _156  and  _158
REMARK   66  A    between atoms: _158  and  _159
REMARK   67  A    between atoms: _158  and  _161
REMARK   68  A    between atoms: _161  and  _162
REMARK   69  A    between atoms: _162  and  _163
REMARK   70  A    between atoms: _166  and  _168
REMARK   71  A    between atoms: _168  and  _169
REMARK   72  A    between atoms: _168  and  _171
REMARK   73  A    between atoms: _171  and  _172
REMARK   74  A    between atoms: _172  and  _173
REMARK   75  A    between atoms: _176  and  _178
REMARK   76  A    between atoms: _178  and  _179
REMARK   77  A    between atoms: _178  and  _181
REMARK   78  A    between atoms: _181  and  _182
REMARK   79  A    between atoms: _182  and  _183
REMARK   80  A    between atoms: _185  and  _187
REMARK   81  A    between atoms: _187  and  _188
REMARK   82  A    between atoms: _190  and  _192
REMARK   83  A    between atoms: _192  and  _193
REMARK   84  A    between atoms: _192  and  _195
REMARK   85  A    between atoms: _195  and  _196
REMARK   86  A    between atoms: _196  and  _197
REMARK   87  A    between atoms: _197  and  _198
REMARK   88  A    between atoms: _207  and  _209
REMARK   89  A    between atoms: _209  and  _210
REMARK   90  A    between atoms: _209  and  _212
REMARK   91  A    between atoms: _212  and  _213
REMARK   92  A    between atoms: _218  and  _219
REMARK   93  A    between atoms: _221  and  _223
REMARK   94  A    between atoms: _223  and  _224
REMARK   95  A    between atoms: _223  and  _226
REMARK   96  A    between atoms: _226  and  _227
REMARK   97  A    between atoms: _232  and  _234
REMARK   98  A    between atoms: _234  and  _235
REMARK   99  A    between atoms: _234  and  _237
REMARK  100  A    between atoms: _237  and  _238
REMARK  101  A    between atoms: _244  and  _245
REMARK  102  A    between atoms: _250  and  _252
REMARK  103  A    between atoms: _252  and  _253
REMARK  104  A    between atoms: _252  and  _255
REMARK  105  A    between atoms: _255  and  _256
REMARK  106  A    between atoms: _256  and  _257
REMARK  107  A    between atoms: _260  and  _262
REMARK  108  A    between atoms: _262  and  _263
REMARK  109  A    between atoms: _262  and  _265
REMARK  110  A    between atoms: _265  and  _266
REMARK  111  A    between atoms: _272  and  _274
REMARK  112  A    between atoms: _274  and  _275
REMARK  113  A    between atoms: _274  and  _277
REMARK  114  A    between atoms: _277  and  _278
REMARK  115  A    between atoms: _281  and  _283
REMARK  116  A    between atoms: _283  and  _284
REMARK  117  A    between atoms: _283  and  _286
REMARK  118  A    between atoms: _286  and  _287
REMARK  119  A    between atoms: _287  and  _288
REMARK  120  A    between atoms: _290  and  _292
REMARK  121  A    between atoms: _292  and  _293
REMARK  122  A    between atoms: _292  and  _295
REMARK  123  A    between atoms: _295  and  _296
REMARK  124  A    between atoms: _299  and  _301
REMARK  125  A    between atoms: _301  and  _302
REMARK  126  A    between atoms: _301  and  _304
REMARK  127  A    between atoms: _304  and  _305
REMARK  128  A    between atoms: _305  and  _306
REMARK  129  A    between atoms: _309  and  _311
REMARK  130  A    between atoms: _311  and  _312
REMARK  131  A    between atoms: _311  and  _314
REMARK  132  A    between atoms: _314  and  _315
REMARK  133  A    between atoms: _325  and  _327
REMARK  134  A    between atoms: _327  and  _328
REMARK  135  A    between atoms: _327  and  _330
REMARK  136  A    between atoms: _330  and  _331
REMARK  137  A    between atoms: _336  and  _337
REMARK  138  A    between atoms: _339  and  _341
REMARK  139  A    between atoms: _341  and  _342
REMARK  140  A    between atoms: _341  and  _344
REMARK  141  A    between atoms: _344  and  _345
REMARK  142  A    between atoms: _348  and  _350
REMARK  143  A    between atoms: _350  and  _351
REMARK  144  A    between atoms: _350  and  _353
REMARK  145  A    between atoms: _353  and  _354
REMARK  146  A    between atoms: _356  and  _358
REMARK  147  A    between atoms: _358  and  _359
REMARK  148  A    between atoms: _358  and  _361
REMARK  149  A    between atoms: _361  and  _362
REMARK  150  A    between atoms: _365  and  _367
REMARK  151  A    between atoms: _367  and  _368
REMARK  152  A    between atoms: _371  and  _373
REMARK  153  A    between atoms: _373  and  _374
REMARK  154  A    between atoms: _373  and  _376
REMARK  155  A    between atoms: _376  and  _377
REMARK  156  A    between atoms: _377  and  _378
REMARK  157  A    between atoms: _381  and  _383
REMARK  158  A    between atoms: _383  and  _384
REMARK  159  A    between atoms: _383  and  _386
REMARK  160  A    between atoms: _386  and  _387
REMARK  161  A    between atoms: _387  and  _388
REMARK  162  A    between atoms: _388  and  _389
REMARK  163  A    between atoms: _398  and  _400
REMARK  164  A    between atoms: _400  and  _401
REMARK  165  A    between atoms: _400  and  _403
REMARK  166  A    between atoms: _403  and  _404
REMARK  167  A    between atoms: _410  and  _412
REMARK  168  A    between atoms: _412  and  _413
REMARK  169  A    between atoms: _412  and  _415
REMARK  170  A    between atoms: _415  and  _416
REMARK  171  A    between atoms: _416  and  _417
REMARK  172  A    between atoms: _420  and  _422
REMARK  173  A    between atoms: _422  and  _423
REMARK  174  A    between atoms: _422  and  _425
REMARK  175  A    between atoms: _428  and  _430
REMARK  176  A    between atoms: _430  and  _431
REMARK  177  A    between atoms: _430  and  _433
REMARK  178  A    between atoms: _433  and  _434
REMARK  179  A    between atoms: _439  and  _440
REMARK  180  A    between atoms: _442  and  _444
REMARK  181  A    between atoms: _444  and  _445
REMARK  182  A    between atoms: _444  and  _447
REMARK  183  A    between atoms: _447  and  _448
REMARK  184  A    between atoms: _451  and  _453
REMARK  185  A    between atoms: _453  and  _454
REMARK  186  A    between atoms: _453  and  _456
REMARK  187  A    between atoms: _456  and  _457
REMARK  188  A    between atoms: _457  and  _458
REMARK  189  A    between atoms: _461  and  _463
REMARK  190  A    between atoms: _463  and  _464
REMARK  191  A    between atoms: _463  and  _466
REMARK  192  A    between atoms: _466  and  _467
REMARK  193  A    between atoms: _470  and  _472
REMARK  194  A    between atoms: _472  and  _473
REMARK  195  A    between atoms: _476  and  _478
REMARK  196  A    between atoms: _478  and  _479
REMARK  197  A    between atoms: _478  and  _481
REMARK  198  A    between atoms: _481  and  _482
REMARK  199  A    between atoms: _487  and  _489
REMARK  200  A    between atoms: _489  and  _490
REMARK  201  A    between atoms: _492  and  _494
REMARK  202  A    between atoms: _494  and  _495
REMARK  203  A    between atoms: _494  and  _497
REMARK  204  A    between atoms: _497  and  _498
REMARK  205  A    between atoms: _504  and  _506
REMARK  206  A    between atoms: _506  and  _507
REMARK  207  A    between atoms: _506  and  _509
REMARK  208  A    between atoms: _509  and  _510
REMARK  209  A    between atoms: _515  and  _517
REMARK  210  A    between atoms: _517  and  _518
REMARK  211  A    between atoms: _517  and  _520
REMARK  212  A    between atoms: _520  and  _521
REMARK  213  A    between atoms: _521  and  _522
REMARK  214  A    between atoms: _525  and  _527
REMARK  215  A    between atoms: _527  and  _528
REMARK  216  A    between atoms: _527  and  _530
REMARK  217  A    between atoms: _530  and  _531
REMARK  218  A    between atoms: _534  and  _536
REMARK  219  A    between atoms: _536  and  _537
REMARK  220  A    between atoms: _536  and  _539
REMARK  221  A    between atoms: _541  and  _543
REMARK  222  A    between atoms: _543  and  _544
REMARK  223  A    between atoms: _543  and  _546
REMARK  224  A    between atoms: _546  and  _547
REMARK  225  A    between atoms: _549  and  _551
REMARK  226  A    between atoms: _551  and  _552
REMARK  227  A    between atoms: _554  and  _556
REMARK  228  A    between atoms: _556  and  _557
REMARK  229  A    between atoms: _556  and  _559
REMARK  230  A    between atoms: _562  and  _564
REMARK  231  A    between atoms: _564  and  _565
REMARK  232  A    between atoms: _568  and  _570
REMARK  233  A    between atoms: _570  and  _571
REMARK  234  A    between atoms: _570  and  _573
REMARK  235  A    between atoms: _573  and  _574
REMARK  236  A    between atoms: _577  and  _579
REMARK  237  A    between atoms: _579  and  _580
REMARK  238  A    between atoms: _582  and  _584
REMARK  239  A    between atoms: _584  and  _585
REMARK  240  A    between atoms: _584  and  _587
REMARK  241  A    between atoms: _590  and  _592
REMARK  242  A    between atoms: _592  and  _593
REMARK  243  A    between atoms: _592  and  _595
REMARK  244  A    between atoms: _595  and  _596
REMARK  245  A    between atoms: _599  and  _601
REMARK  246  A    between atoms: _601  and  _602
REMARK  247  A    between atoms: _601  and  _604
REMARK  248  A    between atoms: _604  and  _605
REMARK  249  A    between atoms: _605  and  _606
REMARK  250  A    between atoms: _606  and  _607
REMARK  251  A    between atoms: _616  and  _618
REMARK  252  A    between atoms: _618  and  _619
REMARK  253  A    between atoms: _618  and  _621
REMARK  254  A    between atoms: _621  and  _622
REMARK  255  A    between atoms: _625  and  _627
REMARK  256  A    between atoms: _627  and  _628
REMARK  257  A    between atoms: _627  and  _630
REMARK  258  A    between atoms: _630  and  _631
REMARK  259  A    between atoms: _634  and  _636
REMARK  260  A    between atoms: _636  and  _637
REMARK  261  A    between atoms: _636  and  _639
REMARK  262  A    between atoms: _639  and  _640
REMARK                            x       y       z     vdW  Elec       q    Type
REMARK                         _______ _______ _______ _____ _____    ______ ____
ROOT
ATOM      1  C   HIS A   1      -7.465  -0.972 -11.500  0.00  0.00    +0.239 C 
ATOM      2  N   LEU A   2      -7.490  -2.224 -11.060  0.00  0.00    -0.298 N 
ATOM      3  H   LEU A   2      -8.283  -2.541 -10.466  0.00  0.00    +0.150 HD
ATOM      4  O   HIS A   1      -6.571  -0.539 -12.223  0.00  0.00    -0.274 OA
ENDROOT
BRANCH   1   5
ATOM      5  CA  HIS A   1      -8.598  -0.055 -11.050  0.00  0.00    +0.151 C 
BRANCH   5   6
ATOM      6  N   HIS A   1      -9.718  -0.718 -10.390  0.00  0.00    -0.238 NA
ATOM      7  H   HIS A   1      -9.716  -0.785  -9.352  0.00  0.00    +0.142 HD
ENDBRANCH   5   6
BRANCH   5   8
ATOM      8  CB  HIS A   1      -8.012   0.996 -10.099  0.00  0.00    +0.074 C 
BRANCH   8   9
ATOM      9  CG  HIS A   1      -9.036   1.911  -9.502  0.00  0.00    +0.082 A 
ATOM     10  CD2 HIS A   1      -9.451   2.071  -8.222  0.00  0.00    +0.115 A 
ATOM     11  NE2 HIS A   1     -10.423   3.045  -8.229  0.00  0.00    -0.221 NA
ATOM     12  CE1 HIS A   1     -10.600   3.466  -9.469  0.00  0.00    +0.199 A 
ATOM     13  ND1 HIS A   1      -9.775   2.797 -10.257  0.00  0.00    -0.227 NA
ENDBRANCH   8   9
ENDBRANCH   5   8
ENDBRANCH   1   5
BRANCH   2  14
ATOM     14  CA  LEU A   2      -6.424  -3.164 -11.395  0.00  0.00    +0.137 C 
BRANCH  14  15
ATOM     15  C   LEU A   2      -6.701  -4.080 -12.582  0.00  0.00    +0.227 C 
ATOM     16  O   LEU A   2      -7.838  -4.485 -12.838  0.00  0.00    -0.286 OA
ENDBRANCH  14  15
BRANCH  14  17
ATOM     17  CB  LEU A   2      -6.084  -3.992 -10.145  0.00  0.00    +0.028 C 
BRANCH  17  18
ATOM     18  CG  LEU A   2      -4.928  -3.493  -9.258  0.00  0.00    +0.002 C 
ATOM     19  CD2 LEU A   2      -5.159  -3.919  -7.813  0.00  0.00    +0.000 C 
ATOM     20  CD1 LEU A   2      -4.777  -1.985  -9.367  0.00  0.00    +0.000 C 
ENDBRANCH  17  18
ENDBRANCH  14  17
ENDBRANCH   2  14
TORSDOF 8
REMARK  Name = ../refined-set-2016/3a5y/3a5y_pocket.pdb
REMARK  262 active torsions:
REMARK  status: ('A' for Active; 'I' for Inactive)
REMARK    1  A    between atoms: _1  and  _3
REMARK    2  A    between atoms: _3  and  _4
REMARK    3  A    between atoms: _3  and  _6
REMARK    4  A    between atoms: _9  and  _11
REMARK    5  A    between atoms: _11  and  _12
REMARK    6  A    between atoms: _11  and  _14
REMARK    7  A    between atoms: _14  and  _15
REMARK    8  A    between atoms: _18  and  _20
REMARK    9  A    between atoms: _20  and  _21
REMARK   10  A    between atoms: _20  and  _23
REMARK   11  A    between atoms: _23  and  _24
REMARK   12  A    between atoms: _29  and  _31
REMARK   13  A    between atoms: _31  and  _32
REMARK   14  A    between atoms: _31  and  _34
REMARK   15  A    between atoms: _34  and  _35
REMARK   16  A    between atoms: _38  and  _40
REMARK   17  A    between atoms: _40  and  _41
REMARK   18  A    between atoms: _40  and  _43
REMARK   19  A    between atoms: _43  and  _44
REMARK   20  A    between atoms: _47  and  _49
REMARK   21  A    between atoms: _49  and  _50
REMARK   22  A    between atoms: _49  and  _52
REMARK   23  A    between atoms: _52  and  _53
REMARK   24  A    between atoms: _56  and  _57
REMARK   25  A    between atoms: _62  and  _64
REMARK   26  A    between atoms: _64  and  _65
REMARK   27  A    between atoms: _64  and  _67
REMARK   28  A    between atoms: _67  and  _68
REMARK   29  A    between atoms: _68  and  _69
REMARK   30  A    between atoms: _72  and  _74
REMARK   31  A    between atoms: _74  and  _75
REMARK   32  A    between atoms: _74  and  _77
REMARK   33  A    between atoms: _77  and  _78
REMARK   34  A    between atoms: _83  and  _84
REMARK   35  A    between atoms: _86  and  _88
REMARK   36  A    between atoms: _88  and  _89
REMARK   37  A    between atoms: _88  and  _91
REMARK   38  A    between atoms: _91  and  _92
REMARK   39  A    between atoms: _92  and  _93
REMARK   40  A    between atoms: _95  and  _97
REMARK   41  A    between atoms: _97  and  _98
REMARK   42  A    between atoms: _97  and  _100
REMARK   43  A    between atoms: _100  and  _101
REMARK   44  A    between atoms: _101  and  _102
REMARK   45  A    between atoms: _102  and  _103
REMARK   46  A    between atoms: _103  and  _104
REMARK   47  A    between atoms: _108  and  _110
REMARK   48  A    between atoms: _110  and  _111
REMARK   49  A    between atoms: _110  and  _113
REMARK   50  A    between atoms: _113  and  _114
REMARK   51  A    between atoms: _116  and  _118
REMARK   52  A    between atoms: _118  and  _119
REMARK   53  A    between atoms: _118  and  _121
REMARK   54  A    between atoms: _121  and  _122
REMARK   55  A    between atoms: _128  and  _130
REMARK   56  A    between atoms: _130  and  _131
REMARK   57  A    between atoms: _130  and  _133
REMARK   58  A    between atoms: _133  and  _134
REMARK   59  A    between atoms: _134  and  _135
REMARK   60  A    between atoms: _135  and  _136
REMARK   61  A    between atoms: _145  and  _147
REMARK   62  A    between atoms: _147  and  _148
REMARK   63  A    between atoms: _147  and  _150
REMARK   64  A    between atoms: _150  and  _151
REMARK   65  A    between atoms: _156  and  _158
REMARK   66  A    between atoms: _158  and  _159
REMARK   67  A    between atoms: _158  and  _161
REMARK   68  A    between atoms: _161  and  _162
REMARK   69  A    between atoms: _162  and  _163
REMARK   70  A    between atoms: _166  and  _168
REMARK   71  A    between atoms: _168  and  _169
REMARK   72  A    between atoms: _168  and  _171
REMARK   73  A    between atoms: _171  and  _172
REMARK   74  A    between atoms: _172  and  _173
REMARK   75  A    between atoms: _176  and  _178
REMARK   76  A    between atoms: _178  and  _179
REMARK   77  A    between atoms: _178  and  _181
REMARK   78  A    between atoms: _181  and  _182
REMARK   79  A    between atoms: _182  and  _183
REMARK   80  A    between atoms: _185  and  _187
REMARK   81  A    between atoms: _187  and  _188
REMARK   82  A    between atoms: _190  and  _192
REMARK   83  A    between atoms: _192  and  _193
REMARK   84  A    between atoms: _192  and  _195
REMARK   85  A    between atoms: _195  and  _196
REMARK   86  A    between atoms: _196  and  _197
REMARK   87  A    between atoms: _197  and  _198
REMARK   88  A    between atoms: _207  and  _209
REMARK   89  A    between atoms: _209  and  _210
REMARK   90  A    between atoms: _209  and  _212
REMARK   91  A    between atoms: _212  and  _213
REMARK   92  A    between atoms: _218  and  _219
REMARK   93  A    between atoms: _221  and  _223
REMARK   94  A    between atoms: _223  and  _224
REMARK   95  A    between atoms: _223  and  _226
REMARK   96  A    between atoms: _226  and  _227
REMARK   97  A    between atoms: _232  and  _234
REMARK   98  A    between atoms: _234  and  _235
REMARK   99  A    between atoms: _234  and  _237
REMARK  100  A    between atoms: _237  and  _238
REMARK  101  A    between atoms: _244  and  _245
REMARK  102  A    between atoms: _250  and  _252
REMARK  103  A    between atoms: _252  and  _253
REMARK  104  A    between atoms: _252  and  _255
REMARK  105  A    between atoms: _255  and  _256
REMARK  106  A    between atoms: _256  and  _257
REMARK  107  A    between atoms: _260  and  _262
REMARK  108  A    between atoms: _262  and  _263
REMARK  109  A    between atoms: _262  and  _265
REMARK  110  A    between atoms: _265  and  _266
REMARK  111  A    between atoms: _272  and  _274
REMARK  112  A    between atoms: _274  and  _275
REMARK  113  A    between atoms: _274  and  _277
REMARK  114  A    between atoms: _277  and  _278
REMARK  115  A    between atoms: _281  and  _283
REMARK  116  A    between atoms: _283  and  _284
REMARK  117  A    between atoms: _283  and  _286
REMARK  118  A    between atoms: _286  and  _287
REMARK  119  A    between atoms: _287  and  _288
REMARK  120  A    between atoms: _290  and  _292
REMARK  121  A    between atoms: _292  and  _293
REMARK  122  A    between atoms: _292  and  _295
REMARK  123  A    between atoms: _295  and  _296
REMARK  124  A    between atoms: _299  and  _301
REMARK  125  A    between atoms: _301  and  _302
REMARK  126  A    between atoms: _301  and  _304
REMARK  127  A    between atoms: _304  and  _305
REMARK  128  A    between atoms: _305  and  _306
REMARK  129  A    between atoms: _309  and  _311
REMARK  130  A    between atoms: _311  and  _312
REMARK  131  A    between atoms: _311  and  _314
REMARK  132  A    between atoms: _314  and  _315
REMARK  133  A    between atoms: _325  and  _327
REMARK  134  A    between atoms: _327  and  _328
REMARK  135  A    between atoms: _327  and  _330
REMARK  136  A    between atoms: _330  and  _331
REMARK  137  A    between atoms: _336  and  _337
REMARK  138  A    between atoms: _339  and  _341
REMARK  139  A    between atoms: _341  and  _342
REMARK  140  A    between atoms: _341  and  _344
REMARK  141  A    between atoms: _344  and  _345
REMARK  142  A    between atoms: _348  and  _350
REMARK  143  A    between atoms: _350  and  _351
REMARK  144  A    between atoms: _350  and  _353
REMARK  145  A    between atoms: _353  and  _354
REMARK  146  A    between atoms: _356  and  _358
REMARK  147  A    between atoms: _358  and  _359
REMARK  148  A    between atoms: _358  and  _361
REMARK  149  A    between atoms: _361  and  _362
REMARK  150  A    between atoms: _365  and  _367
REMARK  151  A    between atoms: _367  and  _368
REMARK  152  A    between atoms: _371  and  _373
REMARK  153  A    between atoms: _373  and  _374
REMARK  154  A    between atoms: _373  and  _376
REMARK  155  A    between atoms: _376  and  _377
REMARK  156  A    between atoms: _377  and  _378
REMARK  157  A    between atoms: _381  and  _383
REMARK  158  A    between atoms: _383  and  _384
REMARK  159  A    between atoms: _383  and  _386
REMARK  160  A    between atoms: _386  and  _387
REMARK  161  A    between atoms: _387  and  _388
REMARK  162  A    between atoms: _388  and  _389
REMARK  163  A    between atoms: _398  and  _400
REMARK  164  A    between atoms: _400  and  _401
REMARK  165  A    between atoms: _400  and  _403
REMARK  166  A    between atoms: _403  and  _404
REMARK  167  A    between atoms: _410  and  _412
REMARK  168  A    between atoms: _412  and  _413
REMARK  169  A    between atoms: _412  and  _415
REMARK  170  A    between atoms: _415  and  _416
REMARK  171  A    between atoms: _416  and  _417
REMARK  172  A    between atoms: _420  and  _422
REMARK  173  A    between atoms: _422  and  _423
REMARK  174  A    between atoms: _422  and  _425
REMARK  175  A    between atoms: _428  and  _430
REMARK  176  A    between atoms: _430  and  _431
REMARK  177  A    between atoms: _430  and  _433
REMARK  178  A    between atoms: _433  and  _434
REMARK  179  A    between atoms: _439  and  _440
REMARK  180  A    between atoms: _442  and  _444
REMARK  181  A    between atoms: _444  and  _445
REMARK  182  A    between atoms: _444  and  _447
REMARK  183  A    between atoms: _447  and  _448
REMARK  184  A    between atoms: _451  and  _453
REMARK  185  A    between atoms: _453  and  _454
REMARK  186  A    between atoms: _453  and  _456
REMARK  187  A    between atoms: _456  and  _457
REMARK  188  A    between atoms: _457  and  _458
REMARK  189  A    between atoms: _461  and  _463
REMARK  190  A    between atoms: _463  and  _464
REMARK  191  A    between atoms: _463  and  _466
REMARK  192  A    between atoms: _466  and  _467
REMARK  193  A    between atoms: _470  and  _472
REMARK  194  A    between atoms: _472  and  _473
REMARK  195  A    between atoms: _476  and  _478
REMARK  196  A    between atoms: _478  and  _479
REMARK  197  A    between atoms: _478  and  _481
REMARK  198  A    between atoms: _481  and  _482
REMARK  199  A    between atoms: _487  and  _489
REMARK  200  A    between atoms: _489  and  _490
REMARK  201  A    between atoms: _492  and  _494
REMARK  202  A    between atoms: _494  and  _495
REMARK  203  A    between atoms: _494  and  _497
REMARK  204  A    between atoms: _497  and  _498
REMARK  205  A    between atoms: _504  and  _506
REMARK  206  A    between atoms: _506  and  _507
REMARK  207  A    between atoms: _506  and  _509
REMARK  208  A    between atoms: _509  and  _510
REMARK  209  A    between atoms: _515  and  _517
REMARK  210  A    between atoms: _517  and  _518
REMARK  211  A    between atoms: _517  and  _520
REMARK  212  A    between atoms: _520  and  _521
REMARK  213  A    between atoms: _521  and  _522
REMARK  214  A    between atoms: _525  and  _527
REMARK  215  A    between atoms: _527  and  _528
REMARK  216  A    between atoms: _527  and  _530
REMARK  217  A    between atoms: _530  and  _531
REMARK  218  A    between atoms: _534  and  _536
REMARK  219  A    between atoms: _536  and  _537
REMARK  220  A    between atoms: _536  and  _539
REMARK  221  A    between atoms: _541  and  _543
REMARK  222  A    between atoms: _543  and  _544
REMARK  223  A    between atoms: _543  and  _546
REMARK  224  A    between atoms: _546  and  _547
REMARK  225  A    between atoms: _549  and  _551
REMARK  226  A    between atoms: _551  and  _552
REMARK  227  A    between atoms: _554  and  _556
REMARK  228  A    between atoms: _556  and  _557
REMARK  229  A    between atoms: _556  and  _559
REMARK  230  A    between atoms: _562  and  _564
REMARK  231  A    between atoms: _564  and  _565
REMARK  232  A    between atoms: _568  and  _570
REMARK  233  A    between atoms: _570  and  _571
REMARK  234  A    between atoms: _570  and  _573
REMARK  235  A    between atoms: _573  and  _574
REMARK  236  A    between atoms: _577  and  _579
REMARK  237  A    between atoms: _579  and  _580
REMARK  238  A    between atoms: _582  and  _584
REMARK  239  A    between atoms: _584  and  _585
REMARK  240  A    between atoms: _584  and  _587
REMARK  241  A    between atoms: _590  and  _592
REMARK  242  A    between atoms: _592  and  _593
REMARK  243  A    between atoms: _592  and  _595
REMARK  244  A    between atoms: _595  and  _596
REMARK  245  A    between atoms: _599  and  _601
REMARK  246  A    between atoms: _601  and  _602
REMARK  247  A    between atoms: _601  and  _604
REMARK  248  A    between atoms: _604  and  _605
REMARK  249  A    between atoms: _605  and  _606
REMARK  250  A    between atoms: _606  and  _607
REMARK  251  A    between atoms: _616  and  _618
REMARK  252  A    between atoms: _618  and  _619
REMARK  253  A    between atoms: _618  and  _621
REMARK  254  A    between atoms: _621  and  _622
REMARK  255  A    between atoms: _625  and  _627
REMARK  256  A    between atoms: _627  and  _628
REMARK  257  A    between atoms: _627  and  _630
REMARK  258  A    between atoms: _630  and  _631
REMARK  259  A    between atoms: _634  and  _636
REMARK  260  A    between atoms: _636  and  _637
REMARK  261  A    between atoms: _636  and  _639
REMARK  262  A    between atoms: _639  and  _640
REMARK                            x       y       z     vdW  Elec       q    Type
REMARK                         _______ _______ _______ _____ _____    ______ ____
ROOT
ATOM      1  C   PRO A   3      -0.804 -10.337  -0.410  0.00  0.00    +0.241 C 
ATOM      2  O   PRO A   3      -0.930 -11.270   0.374  0.00  0.00    -0.273 OA
ATOM      3  N   GLU A   4      -1.553  -9.244  -0.351  0.00  0.00    -0.297 N 
ATOM      4  H   GLU A   4      -1.443  -8.512  -1.081  0.00  0.00    +0.150 HD
ENDROOT
BRANCH   1   7
ATOM      5  C   SER A   2      -0.388  -8.865  -3.272  0.00  0.00    +0.246 C 
ATOM      6  N   PRO A   3       0.448  -9.152  -2.265  0.00  0.00    -0.272 N 
ATOM      7  CA  PRO A   3       0.230 -10.405  -1.526  0.00  0.00    +0.152 C 
ATOM      8  CB  PRO A   3       1.617 -10.713  -0.979  0.00  0.00    +0.031 C 
ATOM      9  CG  PRO A   3       2.128  -9.332  -0.647  0.00  0.00    +0.024 C 
ATOM     10  CD  PRO A   3       1.732  -8.529  -1.882  0.00  0.00    +0.094 C 
ATOM     11  O   SER A   2      -1.322  -9.613  -3.570  0.00  0.00    -0.273 OA
BRANCH   5  12
ATOM     12  CA  SER A   2      -0.159  -7.575  -4.055  0.00  0.00    +0.178 C 
BRANCH  12  14
ATOM     13  C   THR A   1      -0.523  -7.118  -6.468  0.00  0.00    +0.241 C 
ATOM     14  N   SER A   2      -0.673  -7.894  -5.393  0.00  0.00    -0.295 N 
ATOM     15  H   SER A   2      -1.191  -8.788  -5.511  0.00  0.00    +0.150 HD
ATOM     16  O   THR A   1       0.062  -6.032  -6.464  0.00  0.00    -0.274 OA
BRANCH  13  17
ATOM     17  CA  THR A   1      -1.123  -7.661  -7.748  0.00  0.00    +0.172 C 
BRANCH  17  18
ATOM     18  CB  THR A   1      -2.457  -6.959  -8.003  0.00  0.00    +0.135 C 
ATOM     19  CG2 THR A   1      -2.989  -7.345  -9.373  0.00  0.00    +0.034 C 
BRANCH  18  20
ATOM     20  OG1 THR A   1      -3.407  -7.383  -7.017  0.00  0.00    -0.383 OA
ATOM     21  HG1 THR A   1      -3.529  -8.364  -7.078  0.00  0.00    +0.210 HD
ENDBRANCH  18  20
ENDBRANCH  17  18
BRANCH  17  22
ATOM     22  N   THR A   1      -1.303  -9.103  -7.676  0.00  0.00    -0.236 NA
ATOM     23  H   THR A   1      -2.259  -9.474  -7.506  0.00  0.00    +0.142 HD
ENDBRANCH  17  22
ENDBRANCH  13  17
ENDBRANCH  12  14
BRANCH  12  24
ATOM     24  CB  SER A   2      -0.945  -6.400  -3.436  0.00  0.00    +0.166 C 
BRANCH  24  25
ATOM     25  OG  SER A   2      -1.087  -6.521  -2.028  0.00  0.00    -0.380 OA
ATOM     26  H   SER A   2      -0.191  -6.543  -1.608  0.00  0.00    +0.211 HD
ENDBRANCH  24  25
ENDBRANCH  12  24
ENDBRANCH   5  12
ENDBRANCH   1   7
BRANCH   3  27
ATOM     27  CA  GLU A   4      -2.531  -9.047   0.720  0.00  0.00    +0.149 C 
BRANCH  27  28
ATOM     28  C   GLU A   4      -3.452 -10.211   1.106  0.00  0.00    +0.241 C 
ATOM     29  O   GLU A   4      -3.552 -10.553   2.284  0.00  0.00    -0.273 OA
ATOM     30  N   TYR A   5      -4.113 -10.833   0.136  0.00  0.00    -0.298 N 
ATOM     31  H   TYR A   5      -3.963 -10.560  -0.856  0.00  0.00    +0.150 HD
BRANCH  30  32
ATOM     32  CA  TYR A   5      -5.053 -11.904   0.470  0.00  0.00    +0.141 C 
BRANCH  32  33
ATOM     33  C   TYR A   5      -4.415 -13.095   1.164  0.00  0.00    +0.227 C 
ATOM     34  O   TYR A   5      -4.983 -13.627   2.117  0.00  0.00    -0.286 OA
ENDBRANCH  32  33
BRANCH  32  35
ATOM     35  CB  TYR A   5      -5.828 -12.370  -0.768  0.00  0.00    +0.054 C 
BRANCH  35  36
ATOM     36  CG  TYR A   5      -6.766 -11.323  -1.348  0.00  0.00    -0.020 A 
ATOM     37  CD2 TYR A   5      -6.650  -9.971  -1.000  0.00  0.00    -0.001 A 
ATOM     38  CE2 TYR A   5      -7.503  -9.006  -1.549  0.00  0.00    +0.036 A 
ATOM     39  CZ  TYR A   5      -8.483  -9.394  -2.454  0.00  0.00    +0.134 A 
ATOM     40  CE1 TYR A   5      -8.616 -10.728  -2.815  0.00  0.00    +0.036 A 
ATOM     41  CD1 TYR A   5      -7.757 -11.685  -2.262  0.00  0.00    -0.001 A 
BRANCH  39  42
ATOM     42  OH  TYR A   5      -9.329  -8.452  -2.998  0.00  0.00    -0.506 OA
ATOM     43  HH  TYR A   5      -9.961  -8.896  -3.617  0.00  0.00    +0.292 HD
ENDBRANCH  39  42
ENDBRANCH  35  36
ENDBRANCH  32  35
ENDBRANCH  30  32
ENDBRANCH  27  28
BRANCH  27  44
ATOM     44  CB  GLU A   4      -3.375  -7.794   0.409  0.00  0.00    +0.041 C 
BRANCH  44  45
ATOM     45  CG  GLU A   4      -4.523  -7.553   1.374  0.00  0.00    +0.116 C 
BRANCH  45  46
ATOM     46  CD  GLU A   4      -5.133  -6.162   1.220  0.00  0.00    +0.365 C 
ATOM     47  OE2 GLU A   4      -5.712  -5.643   2.200  0.00  0.00    -0.246 OA
ATOM     48  OE1 GLU A   4      -5.037  -5.589   0.120  0.00  0.00    -0.246 OA
ENDBRANCH  45  46
ENDBRANCH  44  45
ENDBRANCH  27  44
ENDBRANCH   3  27
TORSDOF 19
REMARK  Name = ../refined-set-2016/3a5y/3a5y_pocket.pdb
REMARK  262 active torsions:
REMARK  status: ('A' for Active; 'I' for Inactive)
REMARK    1  A    between atoms: _1  and  _3
REMARK    2  A    between atoms: _3  and  _4
REMARK    3  A    between atoms: _3  and  _6
REMARK    4  A    between atoms: _9  and  _11
REMARK    5  A    between atoms: _11  and  _12
REMARK    6  A    between atoms: _11  and  _14
REMARK    7  A    between atoms: _14  and  _15
REMARK    8  A    between atoms: _18  and  _20
REMARK    9  A    between atoms: _20  and  _21
REMARK   10  A    between atoms: _20  and  _23
REMARK   11  A    between atoms: _23  and  _24
REMARK   12  A    between atoms: _29  and  _31
REMARK   13  A    between atoms: _31  and  _32
REMARK   14  A    between atoms: _31  and  _34
REMARK   15  A    between atoms: _34  and  _35
REMARK   16  A    between atoms: _38  and  _40
REMARK   17  A    between atoms: _40  and  _41
REMARK   18  A    between atoms: _40  and  _43
REMARK   19  A    between atoms: _43  and  _44
REMARK   20  A    between atoms: _47  and  _49
REMARK   21  A    between atoms: _49  and  _50
REMARK   22  A    between atoms: _49  and  _52
REMARK   23  A    between atoms: _52  and  _53
REMARK   24  A    between atoms: _56  and  _57
REMARK   25  A    between atoms: _62  and  _64
REMARK   26  A    between atoms: _64  and  _65
REMARK   27  A    between atoms: _64  and  _67
REMARK   28  A    between atoms: _67  and  _68
REMARK   29  A    between atoms: _68  and  _69
REMARK   30  A    between atoms: _72  and  _74
REMARK   31  A    between atoms: _74  and  _75
REMARK   32  A    between atoms: _74  and  _77
REMARK   33  A    between atoms: _77  and  _78
REMARK   34  A    between atoms: _83  and  _84
REMARK   35  A    between atoms: _86  and  _88
REMARK   36  A    between atoms: _88  and  _89
REMARK   37  A    between atoms: _88  and  _91
REMARK   38  A    between atoms: _91  and  _92
REMARK   39  A    between atoms: _92  and  _93
REMARK   40  A    between atoms: _95  and  _97
REMARK   41  A    between atoms: _97  and  _98
REMARK   42  A    between atoms: _97  and  _100
REMARK   43  A    between atoms: _100  and  _101
REMARK   44  A    between atoms: _101  and  _102
REMARK   45  A    between atoms: _102  and  _103
REMARK   46  A    between atoms: _103  and  _104
REMARK   47  A    between atoms: _108  and  _110
REMARK   48  A    between atoms: _110  and  _111
REMARK   49  A    between atoms: _110  and  _113
REMARK   50  A    between atoms: _113  and  _114
REMARK   51  A    between atoms: _116  and  _118
REMARK   52  A    between atoms: _118  and  _119
REMARK   53  A    between atoms: _118  and  _121
REMARK   54  A    between atoms: _121  and  _122
REMARK   55  A    between atoms: _128  and  _130
REMARK   56  A    between atoms: _130  and  _131
REMARK   57  A    between atoms: _130  and  _133
REMARK   58  A    between atoms: _133  and  _134
REMARK   59  A    between atoms: _134  and  _135
REMARK   60  A    between atoms: _135  and  _136
REMARK   61  A    between atoms: _145  and  _147
REMARK   62  A    between atoms: _147  and  _148
REMARK   63  A    between atoms: _147  and  _150
REMARK   64  A    between atoms: _150  and  _151
REMARK   65  A    between atoms: _156  and  _158
REMARK   66  A    between atoms: _158  and  _159
REMARK   67  A    between atoms: _158  and  _161
REMARK   68  A    between atoms: _161  and  _162
REMARK   69  A    between atoms: _162  and  _163
REMARK   70  A    between atoms: _166  and  _168
REMARK   71  A    between atoms: _168  and  _169
REMARK   72  A    between atoms: _168  and  _171
REMARK   73  A    between atoms: _171  and  _172
REMARK   74  A    between atoms: _172  and  _173
REMARK   75  A    between atoms: _176  and  _178
REMARK   76  A    between atoms: _178  and  _179
REMARK   77  A    between atoms: _178  and  _181
REMARK   78  A    between atoms: _181  and  _182
REMARK   79  A    between atoms: _182  and  _183
REMARK   80  A    between atoms: _185  and  _187
REMARK   81  A    between atoms: _187  and  _188
REMARK   82  A    between atoms: _190  and  _192
REMARK   83  A    between atoms: _192  and  _193
REMARK   84  A    between atoms: _192  and  _195
REMARK   85  A    between atoms: _195  and  _196
REMARK   86  A    between atoms: _196  and  _197
REMARK   87  A    between atoms: _197  and  _198
REMARK   88  A    between atoms: _207  and  _209
REMARK   89  A    between atoms: _209  and  _210
REMARK   90  A    between atoms: _209  and  _212
REMARK   91  A    between atoms: _212  and  _213
REMARK   92  A    between atoms: _218  and  _219
REMARK   93  A    between atoms: _221  and  _223
REMARK   94  A    between atoms: _223  and  _224
REMARK   95  A    between atoms: _223  and  _226
REMARK   96  A    between atoms: _226  and  _227
REMARK   97  A    between atoms: _232  and  _234
REMARK   98  A    between atoms: _234  and  _235
REMARK   99  A    between atoms: _234  and  _237
REMARK  100  A    between atoms: _237  and  _238
REMARK  101  A    between atoms: _244  and  _245
REMARK  102  A    between atoms: _250  and  _252
REMARK  103  A    between atoms: _252  and  _253
REMARK  104  A    between atoms: _252  and  _255
REMARK  105  A    between atoms: _255  and  _256
REMARK  106  A    between atoms: _256  and  _257
REMARK  107  A    between atoms: _260  and  _262
REMARK  108  A    between atoms: _262  and  _263
REMARK  109  A    between atoms: _262  and  _265
REMARK  110  A    between atoms: _265  and  _266
REMARK  111  A    between atoms: _272  and  _274
REMARK  112  A    between atoms: _274  and  _275
REMARK  113  A    between atoms: _274  and  _277
REMARK  114  A    between atoms: _277  and  _278
REMARK  115  A    between atoms: _281  and  _283
REMARK  116  A    between atoms: _283  and  _284
REMARK  117  A    between atoms: _283  and  _286
REMARK  118  A    between atoms: _286  and  _287
REMARK  119  A    between atoms: _287  and  _288
REMARK  120  A    between atoms: _290  and  _292
REMARK  121  A    between atoms: _292  and  _293
REMARK  122  A    between atoms: _292  and  _295
REMARK  123  A    between atoms: _295  and  _296
REMARK  124  A    between atoms: _299  and  _301
REMARK  125  A    between atoms: _301  and  _302
REMARK  126  A    between atoms: _301  and  _304
REMARK  127  A    between atoms: _304  and  _305
REMARK  128  A    between atoms: _305  and  _306
REMARK  129  A    between atoms: _309  and  _311
REMARK  130  A    between atoms: _311  and  _312
REMARK  131  A    between atoms: _311  and  _314
REMARK  132  A    between atoms: _314  and  _315
REMARK  133  A    between atoms: _325  and  _327
REMARK  134  A    between atoms: _327  and  _328
REMARK  135  A    between atoms: _327  and  _330
REMARK  136  A    between atoms: _330  and  _331
REMARK  137  A    between atoms: _336  and  _337
REMARK  138  A    between atoms: _339  and  _341
REMARK  139  A    between atoms: _341  and  _342
REMARK  140  A    between atoms: _341  and  _344
REMARK  141  A    between atoms: _344  and  _345
REMARK  142  A    between atoms: _348  and  _350
REMARK  143  A    between atoms: _350  and  _351
REMARK  144  A    between atoms: _350  and  _353
REMARK  145  A    between atoms: _353  and  _354
REMARK  146  A    between atoms: _356  and  _358
REMARK  147  A    between atoms: _358  and  _359
REMARK  148  A    between atoms: _358  and  _361
REMARK  149  A    between atoms: _361  and  _362
REMARK  150  A    between atoms: _365  and  _367
REMARK  151  A    between atoms: _367  and  _368
REMARK  152  A    between atoms: _371  and  _373
REMARK  153  A    between atoms: _373  and  _374
REMARK  154  A    between atoms: _373  and  _376
REMARK  155  A    between atoms: _376  and  _377
REMARK  156  A    between atoms: _377  and  _378
REMARK  157  A    between atoms: _381  and  _383
REMARK  158  A    between atoms: _383  and  _384
REMARK  159  A    between atoms: _383  and  _386
REMARK  160  A    between atoms: _386  and  _387
REMARK  161  A    between atoms: _387  and  _388
REMARK  162  A    between atoms: _388  and  _389
REMARK  163  A    between atoms: _398  and  _400
REMARK  164  A    between atoms: _400  and  _401
REMARK  165  A    between atoms: _400  and  _403
REMARK  166  A    between atoms: _403  and  _404
REMARK  167  A    between atoms: _410  and  _412
REMARK  168  A    between atoms: _412  and  _413
REMARK  169  A    between atoms: _412  and  _415
REMARK  170  A    between atoms: _415  and  _416
REMARK  171  A    between atoms: _416  and  _417
REMARK  172  A    between atoms: _420  and  _422
REMARK  173  A    between atoms: _422  and  _423
REMARK  174  A    between atoms: _422  and  _425
REMARK  175  A    between atoms: _428  and  _430
REMARK  176  A    between atoms: _430  and  _431
REMARK  177  A    between atoms: _430  and  _433
REMARK  178  A    between atoms: _433  and  _434
REMARK  179  A    between atoms: _439  and  _440
REMARK  180  A    between atoms: _442  and  _444
REMARK  181  A    between atoms: _444  and  _445
REMARK  182  A    between atoms: _444  and  _447
REMARK  183  A    between atoms: _447  and  _448
REMARK  184  A    between atoms: _451  and  _453
REMARK  185  A    between atoms: _453  and  _454
REMARK  186  A    between atoms: _453  and  _456
REMARK  187  A    between atoms: _456  and  _457
REMARK  188  A    between atoms: _457  and  _458
REMARK  189  A    between atoms: _461  and  _463
REMARK  190  A    between atoms: _463  and  _464
REMARK  191  A    between atoms: _463  and  _466
REMARK  192  A    between atoms: _466  and  _467
REMARK  193  A    between atoms: _470  and  _472
REMARK  194  A    between atoms: _472  and  _473
REMARK  195  A    between atoms: _476  and  _478
REMARK  196  A    between atoms: _478  and  _479
REMARK  197  A    between atoms: _478  and  _481
REMARK  198  A    between atoms: _481  and  _482
REMARK  199  A    between atoms: _487  and  _489
REMARK  200  A    between atoms: _489  and  _490
REMARK  201  A    between atoms: _492  and  _494
REMARK  202  A    between atoms: _494  and  _495
REMARK  203  A    between atoms: _494  and  _497
REMARK  204  A    between atoms: _497  and  _498
REMARK  205  A    between atoms: _504  and  _506
REMARK  206  A    between atoms: _506  and  _507
REMARK  207  A    between atoms: _506  and  _509
REMARK  208  A    between atoms: _509  and  _510
REMARK  209  A    between atoms: _515  and  _517
REMARK  210  A    between atoms: _517  and  _518
REMARK  211  A    between atoms: _517  and  _520
REMARK  212  A    between atoms: _520  and  _521
REMARK  213  A    between atoms: _521  and  _522
REMARK  214  A    between atoms: _525  and  _527
REMARK  215  A    between atoms: _527  and  _528
REMARK  216  A    between atoms: _527  and  _530
REMARK  217  A    between atoms: _530  and  _531
REMARK  218  A    between atoms: _534  and  _536
REMARK  219  A    between atoms: _536  and  _537
REMARK  220  A    between atoms: _536  and  _539
REMARK  221  A    between atoms: _541  and  _543
REMARK  222  A    between atoms: _543  and  _544
REMARK  223  A    between atoms: _543  and  _546
REMARK  224  A    between atoms: _546  and  _547
REMARK  225  A    between atoms: _549  and  _551
REMARK  226  A    between atoms: _551  and  _552
REMARK  227  A    between atoms: _554  and  _556
REMARK  228  A    between atoms: _556  and  _557
REMARK  229  A    between atoms: _556  and  _559
REMARK  230  A    between atoms: _562  and  _564
REMARK  231  A    between atoms: _564  and  _565
REMARK  232  A    between atoms: _568  and  _570
REMARK  233  A    between atoms: _570  and  _571
REMARK  234  A    between atoms: _570  and  _573
REMARK  235  A    between atoms: _573  and  _574
REMARK  236  A    between atoms: _577  and  _579
REMARK  237  A    between atoms: _579  and  _580
REMARK  238  A    between atoms: _582  and  _584
REMARK  239  A    between atoms: _584  and  _585
REMARK  240  A    between atoms: _584  and  _587
REMARK  241  A    between atoms: _590  and  _592
REMARK  242  A    between atoms: _592  and  _593
REMARK  243  A    between atoms: _592  and  _595
REMARK  244  A    between atoms: _595  and  _596
REMARK  245  A    between atoms: _599  and  _601
REMARK  246  A    between atoms: _601  and  _602
REMARK  247  A    between atoms: _601  and  _604
REMARK  248  A    between atoms: _604  and  _605
REMARK  249  A    between atoms: _605  and  _606
REMARK  250  A    between atoms: _606  and  _607
REMARK  251  A    between atoms: _616  and  _618
REMARK  252  A    between atoms: _618  and  _619
REMARK  253  A    between atoms: _618  and  _621
REMARK  254  A    between atoms: _621  and  _622
REMARK  255  A    between atoms: _625  and  _627
REMARK  256  A    between atoms: _627  and  _628
REMARK  257  A    between atoms: _627  and  _630
REMARK  258  A    between atoms: _630  and  _631
REMARK  259  A    between atoms: _634  and  _636
REMARK  260  A    between atoms: _636  and  _637
REMARK  261  A    between atoms: _636  and  _639
REMARK  262  A    between atoms: _639  and  _640
REMARK                            x       y       z     vdW  Elec       q    Type
REMARK                         _______ _______ _______ _____ _____    ______ ____
ROOT
ATOM      1  C   MET A   1      -2.115 -12.468   5.158  0.00  0.00    +0.238 C 
ATOM      2  O   MET A   1      -1.912 -12.773   6.338  0.00  0.00    -0.274 OA
ATOM      3  N   LYS A   2      -3.300 -12.062   4.717  0.00  0.00    -0.298 N 
ATOM      4  H   LYS A   2      -3.415 -11.781   3.722  0.00  0.00    +0.150 HD
ENDROOT
BRANCH   1   5
ATOM      5  CA  MET A   1      -0.997 -12.567   4.126  0.00  0.00    +0.146 C 
BRANCH   5   6
ATOM      6  N   MET A   1      -1.532 -13.003   2.842  0.00  0.00    -0.238 NA
ATOM      7  H   MET A   1      -1.544 -12.353   2.030  0.00  0.00    +0.142 HD
ENDBRANCH   5   6
BRANCH   5   8
ATOM      8  CB  MET A   1      -0.242 -11.252   3.959  0.00  0.00    +0.038 C 
BRANCH   8   9
ATOM      9  CG  MET A   1       1.060 -11.464   3.163  0.00  0.00    +0.060 C 
BRANCH   9  10
ATOM     10  SD  MET A   1       2.092 -10.025   3.040  0.00  0.00    -0.139 S 
ATOM     11  CE  MET A   1       3.050 -10.130   4.641  0.00  0.00    +0.069 C 
ENDBRANCH   9  10
ENDBRANCH   8   9
ENDBRANCH   5   8
ENDBRANCH   1   5
BRANCH   3  12
ATOM     12  CA  LYS A   2      -4.435 -12.010   5.620  0.00  0.00    +0.137 C 
BRANCH  12  13
ATOM     13  C   LYS A   2      -4.815 -13.436   6.050  0.00  0.00    +0.227 C 
ATOM     14  O   LYS A   2      -5.172 -13.663   7.201  0.00  0.00    -0.286 OA
ENDBRANCH  12  13
BRANCH  12  15
ATOM     15  CB  LYS A   2      -5.617 -11.299   4.956  0.00  0.00    +0.028 C 
BRANCH  15  16
ATOM     16  CG  LYS A   2      -5.388  -9.794   4.897  0.00  0.00    -0.000 C 
BRANCH  16  17
ATOM     17  CD  LYS A   2      -6.584  -9.025   4.358  0.00  0.00    -0.024 C 
BRANCH  17  18
ATOM     18  CE  LYS A   2      -6.398  -7.529   4.642  0.00  0.00    -0.086 C 
BRANCH  18  19
ATOM     19  NZ  LYS A   2      -7.503  -6.697   4.088  0.00  0.00    +0.380 N 
ATOM     20  HZ1 LYS A   2      -8.405  -6.993   4.513  0.00  0.00    -0.089 HD
ATOM     21  HZ2 LYS A   2      -7.326  -5.696   4.309  0.00  0.00    -0.089 HD
ATOM     22  HZ3 LYS A   2      -7.547  -6.823   3.057  0.00  0.00    -0.089 HD
ENDBRANCH  18  19
ENDBRANCH  17  18
ENDBRANCH  16  17
ENDBRANCH  15  16
ENDBRANCH  12  15
ENDBRANCH   3  12
TORSDOF 12
REMARK  Name = ../refined-set-2016/3a5y/3a5y_pocket.pdb
REMARK  262 active torsions:
REMARK  status: ('A' for Active; 'I' for Inactive)
REMARK    1  A    between atoms: _1  and  _3
REMARK    2  A    between atoms: _3  and  _4
REMARK    3  A    between atoms: _3  and  _6
REMARK    4  A    between atoms: _9  and  _11
REMARK    5  A    between atoms: _11  and  _12
REMARK    6  A    between atoms: _11  and  _14
REMARK    7  A    between atoms: _14  and  _15
REMARK    8  A    between atoms: _18  and  _20
REMARK    9  A    between atoms: _20  and  _21
REMARK   10  A    between atoms: _20  and  _23
REMARK   11  A    between atoms: _23  and  _24
REMARK   12  A    between atoms: _29  and  _31
REMARK   13  A    between atoms: _31  and  _32
REMARK   14  A    between atoms: _31  and  _34
REMARK   15  A    between atoms: _34  and  _35
REMARK   16  A    between atoms: _38  and  _40
REMARK   17  A    between atoms: _40  and  _41
REMARK   18  A    between atoms: _40  and  _43
REMARK   19  A    between atoms: _43  and  _44
REMARK   20  A    between atoms: _47  and  _49
REMARK   21  A    between atoms: _49  and  _50
REMARK   22  A    between atoms: _49  and  _52
REMARK   23  A    between atoms: _52  and  _53
REMARK   24  A    between atoms: _56  and  _57
REMARK   25  A    between atoms: _62  and  _64
REMARK   26  A    between atoms: _64  and  _65
REMARK   27  A    between atoms: _64  and  _67
REMARK   28  A    between atoms: _67  and  _68
REMARK   29  A    between atoms: _68  and  _69
REMARK   30  A    between atoms: _72  and  _74
REMARK   31  A    between atoms: _74  and  _75
REMARK   32  A    between atoms: _74  and  _77
REMARK   33  A    between atoms: _77  and  _78
REMARK   34  A    between atoms: _83  and  _84
REMARK   35  A    between atoms: _86  and  _88
REMARK   36  A    between atoms: _88  and  _89
REMARK   37  A    between atoms: _88  and  _91
REMARK   38  A    between atoms: _91  and  _92
REMARK   39  A    between atoms: _92  and  _93
REMARK   40  A    between atoms: _95  and  _97
REMARK   41  A    between atoms: _97  and  _98
REMARK   42  A    between atoms: _97  and  _100
REMARK   43  A    between atoms: _100  and  _101
REMARK   44  A    between atoms: _101  and  _102
REMARK   45  A    between atoms: _102  and  _103
REMARK   46  A    between atoms: _103  and  _104
REMARK   47  A    between atoms: _108  and  _110
REMARK   48  A    between atoms: _110  and  _111
REMARK   49  A    between atoms: _110  and  _113
REMARK   50  A    between atoms: _113  and  _114
REMARK   51  A    between atoms: _116  and  _118
REMARK   52  A    between atoms: _118  and  _119
REMARK   53  A    between atoms: _118  and  _121
REMARK   54  A    between atoms: _121  and  _122
REMARK   55  A    between atoms: _128  and  _130
REMARK   56  A    between atoms: _130  and  _131
REMARK   57  A    between atoms: _130  and  _133
REMARK   58  A    between atoms: _133  and  _134
REMARK   59  A    between atoms: _134  and  _135
REMARK   60  A    between atoms: _135  and  _136
REMARK   61  A    between atoms: _145  and  _147
REMARK   62  A    between atoms: _147  and  _148
REMARK   63  A    between atoms: _147  and  _150
REMARK   64  A    between atoms: _150  and  _151
REMARK   65  A    between atoms: _156  and  _158
REMARK   66  A    between atoms: _158  and  _159
REMARK   67  A    between atoms: _158  and  _161
REMARK   68  A    between atoms: _161  and  _162
REMARK   69  A    between atoms: _162  and  _163
REMARK   70  A    between atoms: _166  and  _168
REMARK   71  A    between atoms: _168  and  _169
REMARK   72  A    between atoms: _168  and  _171
REMARK   73  A    between atoms: _171  and  _172
REMARK   74  A    between atoms: _172  and  _173
REMARK   75  A    between atoms: _176  and  _178
REMARK   76  A    between atoms: _178  and  _179
REMARK   77  A    between atoms: _178  and  _181
REMARK   78  A    between atoms: _181  and  _182
REMARK   79  A    between atoms: _182  and  _183
REMARK   80  A    between atoms: _185  and  _187
REMARK   81  A    between atoms: _187  and  _188
REMARK   82  A    between atoms: _190  and  _192
REMARK   83  A    between atoms: _192  and  _193
REMARK   84  A    between atoms: _192  and  _195
REMARK   85  A    between atoms: _195  and  _196
REMARK   86  A    between atoms: _196  and  _197
REMARK   87  A    between atoms: _197  and  _198
REMARK   88  A    between atoms: _207  and  _209
REMARK   89  A    between atoms: _209  and  _210
REMARK   90  A    between atoms: _209  and  _212
REMARK   91  A    between atoms: _212  and  _213
REMARK   92  A    between atoms: _218  and  _219
REMARK   93  A    between atoms: _221  and  _223
REMARK   94  A    between atoms: _223  and  _224
REMARK   95  A    between atoms: _223  and  _226
REMARK   96  A    between atoms: _226  and  _227
REMARK   97  A    between atoms: _232  and  _234
REMARK   98  A    between atoms: _234  and  _235
REMARK   99  A    between atoms: _234  and  _237
REMARK  100  A    between atoms: _237  and  _238
REMARK  101  A    between atoms: _244  and  _245
REMARK  102  A    between atoms: _250  and  _252
REMARK  103  A    between atoms: _252  and  _253
REMARK  104  A    between atoms: _252  and  _255
REMARK  105  A    between atoms: _255  and  _256
REMARK  106  A    between atoms: _256  and  _257
REMARK  107  A    between atoms: _260  and  _262
REMARK  108  A    between atoms: _262  and  _263
REMARK  109  A    between atoms: _262  and  _265
REMARK  110  A    between atoms: _265  and  _266
REMARK  111  A    between atoms: _272  and  _274
REMARK  112  A    between atoms: _274  and  _275
REMARK  113  A    between atoms: _274  and  _277
REMARK  114  A    between atoms: _277  and  _278
REMARK  115  A    between atoms: _281  and  _283
REMARK  116  A    between atoms: _283  and  _284
REMARK  117  A    between atoms: _283  and  _286
REMARK  118  A    between atoms: _286  and  _287
REMARK  119  A    between atoms: _287  and  _288
REMARK  120  A    between atoms: _290  and  _292
REMARK  121  A    between atoms: _292  and  _293
REMARK  122  A    between atoms: _292  and  _295
REMARK  123  A    between atoms: _295  and  _296
REMARK  124  A    between atoms: _299  and  _301
REMARK  125  A    between atoms: _301  and  _302
REMARK  126  A    between atoms: _301  and  _304
REMARK  127  A    between atoms: _304  and  _305
REMARK  128  A    between atoms: _305  and  _306
REMARK  129  A    between atoms: _309  and  _311
REMARK  130  A    between atoms: _311  and  _312
REMARK  131  A    between atoms: _311  and  _314
REMARK  132  A    between atoms: _314  and  _315
REMARK  133  A    between atoms: _325  and  _327
REMARK  134  A    between atoms: _327  and  _328
REMARK  135  A    between atoms: _327  and  _330
REMARK  136  A    between atoms: _330  and  _331
REMARK  137  A    between atoms: _336  and  _337
REMARK  138  A    between atoms: _339  and  _341
REMARK  139  A    between atoms: _341  and  _342
REMARK  140  A    between atoms: _341  and  _344
REMARK  141  A    between atoms: _344  and  _345
REMARK  142  A    between atoms: _348  and  _350
REMARK  143  A    between atoms: _350  and  _351
REMARK  144  A    between atoms: _350  and  _353
REMARK  145  A    between atoms: _353  and  _354
REMARK  146  A    between atoms: _356  and  _358
REMARK  147  A    between atoms: _358  and  _359
REMARK  148  A    between atoms: _358  and  _361
REMARK  149  A    between atoms: _361  and  _362
REMARK  150  A    between atoms: _365  and  _367
REMARK  151  A    between atoms: _367  and  _368
REMARK  152  A    between atoms: _371  and  _373
REMARK  153  A    between atoms: _373  and  _374
REMARK  154  A    between atoms: _373  and  _376
REMARK  155  A    between atoms: _376  and  _377
REMARK  156  A    between atoms: _377  and  _378
REMARK  157  A    between atoms: _381  and  _383
REMARK  158  A    between atoms: _383  and  _384
REMARK  159  A    between atoms: _383  and  _386
REMARK  160  A    between atoms: _386  and  _387
REMARK  161  A    between atoms: _387  and  _388
REMARK  162  A    between atoms: _388  and  _389
REMARK  163  A    between atoms: _398  and  _400
REMARK  164  A    between atoms: _400  and  _401
REMARK  165  A    between atoms: _400  and  _403
REMARK  166  A    between atoms: _403  and  _404
REMARK  167  A    between atoms: _410  and  _412
REMARK  168  A    between atoms: _412  and  _413
REMARK  169  A    between atoms: _412  and  _415
REMARK  170  A    between atoms: _415  and  _416
REMARK  171  A    between atoms: _416  and  _417
REMARK  172  A    between atoms: _420  and  _422
REMARK  173  A    between atoms: _422  and  _423
REMARK  174  A    between atoms: _422  and  _425
REMARK  175  A    between atoms: _428  and  _430
REMARK  176  A    between atoms: _430  and  _431
REMARK  177  A    between atoms: _430  and  _433
REMARK  178  A    between atoms: _433  and  _434
REMARK  179  A    between atoms: _439  and  _440
REMARK  180  A    between atoms: _442  and  _444
REMARK  181  A    between atoms: _444  and  _445
REMARK  182  A    between atoms: _444  and  _447
REMARK  183  A    between atoms: _447  and  _448
REMARK  184  A    between atoms: _451  and  _453
REMARK  185  A    between atoms: _453  and  _454
REMARK  186  A    between atoms: _453  and  _456
REMARK  187  A    between atoms: _456  and  _457
REMARK  188  A    between atoms: _457  and  _458
REMARK  189  A    between atoms: _461  and  _463
REMARK  190  A    between atoms: _463  and  _464
REMARK  191  A    between atoms: _463  and  _466
REMARK  192  A    between atoms: _466  and  _467
REMARK  193  A    between atoms: _470  and  _472
REMARK  194  A    between atoms: _472  and  _473
REMARK  195  A    between atoms: _476  and  _478
REMARK  196  A    between atoms: _478  and  _479
REMARK  197  A    between atoms: _478  and  _481
REMARK  198  A    between atoms: _481  and  _482
REMARK  199  A    between atoms: _487  and  _489
REMARK  200  A    between atoms: _489  and  _490
REMARK  201  A    between atoms: _492  and  _494
REMARK  202  A    between atoms: _494  and  _495
REMARK  203  A    between atoms: _494  and  _497
REMARK  204  A    between atoms: _497  and  _498
REMARK  205  A    between atoms: _504  and  _506
REMARK  206  A    between atoms: _506  and  _507
REMARK  207  A    between atoms: _506  and  _509
REMARK  208  A    between atoms: _509  and  _510
REMARK  209  A    between atoms: _515  and  _517
REMARK  210  A    between atoms: _517  and  _518
REMARK  211  A    between atoms: _517  and  _520
REMARK  212  A    between atoms: _520  and  _521
REMARK  213  A    between atoms: _521  and  _522
REMARK  214  A    between atoms: _525  and  _527
REMARK  215  A    between atoms: _527  and  _528
REMARK  216  A    between atoms: _527  and  _530
REMARK  217  A    between atoms: _530  and  _531
REMARK  218  A    between atoms: _534  and  _536
REMARK  219  A    between atoms: _536  and  _537
REMARK  220  A    between atoms: _536  and  _539
REMARK  221  A    between atoms: _541  and  _543
REMARK  222  A    between atoms: _543  and  _544
REMARK  223  A    between atoms: _543  and  _546
REMARK  224  A    between atoms: _546  and  _547
REMARK  225  A    between atoms: _549  and  _551
REMARK  226  A    between atoms: _551  and  _552
REMARK  227  A    between atoms: _554  and  _556
REMARK  228  A    between atoms: _556  and  _557
REMARK  229  A    between atoms: _556  and  _559
REMARK  230  A    between atoms: _562  and  _564
REMARK  231  A    between atoms: _564  and  _565
REMARK  232  A    between atoms: _568  and  _570
REMARK  233  A    between atoms: _570  and  _571
REMARK  234  A    between atoms: _570  and  _573
REMARK  235  A    between atoms: _573  and  _574
REMARK  236  A    between atoms: _577  and  _579
REMARK  237  A    between atoms: _579  and  _580
REMARK  238  A    between atoms: _582  and  _584
REMARK  239  A    between atoms: _584  and  _585
REMARK  240  A    between atoms: _584  and  _587
REMARK  241  A    between atoms: _590  and  _592
REMARK  242  A    between atoms: _592  and  _593
REMARK  243  A    between atoms: _592  and  _595
REMARK  244  A    between atoms: _595  and  _596
REMARK  245  A    between atoms: _599  and  _601
REMARK  246  A    between atoms: _601  and  _602
REMARK  247  A    between atoms: _601  and  _604
REMARK  248  A    between atoms: _604  and  _605
REMARK  249  A    between atoms: _605  and  _606
REMARK  250  A    between atoms: _606  and  _607
REMARK  251  A    between atoms: _616  and  _618
REMARK  252  A    between atoms: _618  and  _619
REMARK  253  A    between atoms: _618  and  _621
REMARK  254  A    between atoms: _621  and  _622
REMARK  255  A    between atoms: _625  and  _627
REMARK  256  A    between atoms: _627  and  _628
REMARK  257  A    between atoms: _627  and  _630
REMARK  258  A    between atoms: _630  and  _631
REMARK  259  A    between atoms: _634  and  _636
REMARK  260  A    between atoms: _636  and  _637
REMARK  261  A    between atoms: _636  and  _639
REMARK  262  A    between atoms: _639  and  _640
REMARK                            x       y       z     vdW  Elec       q    Type
REMARK                         _______ _______ _______ _____ _____    ______ ____
ROOT
ATOM      1  CA  HIS A  11       5.907   1.924 -13.179  0.00  0.00    +0.155 C 
ENDROOT
BRANCH   1   2
ATOM      2  C   HIS A  11       6.608   0.853 -13.996  0.00  0.00    +0.241 C 
ATOM      3  N   ASN A  12       6.509  -0.384 -13.519  0.00  0.00    -0.297 N 
ATOM      4  H   ASN A  12       6.050  -0.530 -12.597  0.00  0.00    +0.150 HD
ATOM      5  O   HIS A  11       7.214   1.136 -15.035  0.00  0.00    -0.273 OA
BRANCH   3   6
ATOM      6  CA  ASN A  12       7.021  -1.543 -14.241  0.00  0.00    +0.158 C 
BRANCH   6   7
ATOM      7  C   ASN A  12       5.955  -2.603 -13.968  0.00  0.00    +0.244 C 
ATOM      8  O   ASN A  12       5.424  -2.665 -12.857  0.00  0.00    -0.273 OA
ATOM      9  N   PRO A  13       5.625  -3.444 -14.971  0.00  0.00    -0.272 N 
ATOM     10  CA  PRO A  13       4.600  -4.482 -14.791  0.00  0.00    +0.152 C 
ATOM     11  CB  PRO A  13       4.485  -5.111 -16.181  0.00  0.00    +0.031 C 
ATOM     12  CG  PRO A  13       5.848  -4.913 -16.768  0.00  0.00    +0.024 C 
ATOM     13  CD  PRO A  13       6.195  -3.499 -16.329  0.00  0.00    +0.094 C 
BRANCH  10  14
ATOM     14  C   PRO A  13       4.905  -5.482 -13.688  0.00  0.00    +0.241 C 
ATOM     15  O   PRO A  13       4.014  -6.163 -13.201  0.00  0.00    -0.273 OA
ATOM     16  N   GLU A  14       6.177  -5.611 -13.336  0.00  0.00    -0.297 N 
ATOM     17  H   GLU A  14       6.915  -5.114 -13.875  0.00  0.00    +0.150 HD
BRANCH  16  18
ATOM     18  CA  GLU A  14       6.547  -6.442 -12.202  0.00  0.00    +0.149 C 
BRANCH  18  19
ATOM     19  C   GLU A  14       7.446  -5.533 -11.385  0.00  0.00    +0.241 C 
ATOM     20  N   PHE A  15       7.160  -5.445 -10.099  0.00  0.00    -0.297 N 
ATOM     21  H   PHE A  15       6.377  -6.005  -9.706  0.00  0.00    +0.150 HD
ATOM     22  O   GLU A  14       8.349  -4.895 -11.914  0.00  0.00    -0.273 OA
BRANCH  20  23
ATOM     23  CA  PHE A  15       7.928  -4.574  -9.228  0.00  0.00    +0.153 C 
BRANCH  23  24
ATOM     24  C   PHE A  15       8.015  -5.220  -7.868  0.00  0.00    +0.241 C 
ATOM     25  N   THR A  16       8.850  -4.667  -7.002  0.00  0.00    -0.295 N 
ATOM     26  H   THR A  16       9.393  -3.819  -7.264  0.00  0.00    +0.150 HD
ATOM     27  O   PHE A  15       7.324  -6.209  -7.592  0.00  0.00    -0.273 OA
BRANCH  25  28
ATOM     28  CA  THR A  16       9.002  -5.258  -5.675  0.00  0.00    +0.176 C 
BRANCH  28  29
ATOM     29  C   THR A  16       8.146  -4.529  -4.643  0.00  0.00    +0.243 C 
ATOM     30  N   MET A  17       7.334  -5.283  -3.918  0.00  0.00    -0.297 N 
ATOM     31  H   MET A  17       7.306  -6.309  -4.083  0.00  0.00    +0.150 HD
ATOM     32  O   THR A  16       8.196  -3.319  -4.522  0.00  0.00    -0.273 OA
BRANCH  30  33
ATOM     33  CA  MET A  17       6.485  -4.702  -2.900  0.00  0.00    +0.149 C 
BRANCH  33  34
ATOM     34  C   MET A  17       7.017  -5.055  -1.531  0.00  0.00    +0.241 C 
ATOM     35  N   LEU A  18       6.905  -4.114  -0.596  0.00  0.00    -0.297 N 
ATOM     36  H   LEU A  18       6.548  -3.175  -0.865  0.00  0.00    +0.150 HD
ATOM     37  O   MET A  17       7.530  -6.155  -1.336  0.00  0.00    -0.273 OA
BRANCH  35  38
ATOM     38  CA  LEU A  18       7.269  -4.363   0.795  0.00  0.00    +0.149 C 
BRANCH  38  39
ATOM     39  C   LEU A  18       5.877  -4.226   1.409  0.00  0.00    +0.241 C 
ATOM     40  N   GLU A  19       5.313  -5.322   1.892  0.00  0.00    -0.297 N 
ATOM     41  H   GLU A  19       5.822  -6.228   1.861  0.00  0.00    +0.150 HD
ATOM     42  O   LEU A  18       5.299  -3.128   1.417  0.00  0.00    -0.273 OA
BRANCH  40  43
ATOM     43  CA  GLU A  19       3.981  -5.253   2.465  0.00  0.00    +0.149 C 
BRANCH  43  44
ATOM     44  C   GLU A  19       4.009  -5.947   3.814  0.00  0.00    +0.241 C 
ATOM     45  N   TRP A  20       3.437  -5.294   4.821  0.00  0.00    -0.297 N 
ATOM     46  H   TRP A  20       2.996  -4.366   4.660  0.00  0.00    +0.150 HD
ATOM     47  O   GLU A  19       4.573  -7.044   3.954  0.00  0.00    -0.273 OA
BRANCH  45  48
ATOM     48  CA  TRP A  20       3.433  -5.891   6.157  0.00  0.00    +0.153 C 
BRANCH  48  49
ATOM     49  C   TRP A  20       2.182  -5.576   6.951  0.00  0.00    +0.241 C 
ATOM     50  N   TYR A  21       1.944  -6.412   7.962  0.00  0.00    -0.298 N 
ATOM     51  H   TYR A  21       2.631  -7.170   8.148  0.00  0.00    +0.150 HD
ATOM     52  O   TRP A  20       1.450  -4.623   6.640  0.00  0.00    -0.273 OA
BRANCH  50  53
ATOM     53  CA  TYR A  21       0.774  -6.318   8.816  0.00  0.00    +0.141 C 
BRANCH  53  54
ATOM     54  C   TYR A  21       1.142  -6.308  10.289  0.00  0.00    +0.227 C 
ATOM     55  O   TYR A  21       2.021  -7.046  10.738  0.00  0.00    -0.286 OA
ENDBRANCH  53  54
BRANCH  53  56
ATOM     56  CB  TYR A  21      -0.183  -7.475   8.503  0.00  0.00    +0.054 C 
BRANCH  56  57
ATOM     57  CG  TYR A  21      -0.744  -7.370   7.105  0.00  0.00    -0.020 A 
ATOM     58  CD2 TYR A  21      -1.984  -6.772   6.884  0.00  0.00    -0.001 A 
ATOM     59  CE2 TYR A  21      -2.444  -6.520   5.596  0.00  0.00    +0.036 A 
ATOM     60  CZ  TYR A  21      -1.668  -6.874   4.505  0.00  0.00    +0.134 A 
ATOM     61  CE1 TYR A  21      -0.438  -7.497   4.691  0.00  0.00    +0.036 A 
ATOM     62  CD1 TYR A  21       0.019  -7.738   5.987  0.00  0.00    -0.001 A 
BRANCH  60  63
ATOM     63  OH  TYR A  21      -2.092  -6.520   3.245  0.00  0.00    -0.506 OA
ATOM     64  HH  TYR A  21      -1.437  -6.841   2.575  0.00  0.00    +0.292 HD
ENDBRANCH  60  63
ENDBRANCH  56  57
ENDBRANCH  53  56
ENDBRANCH  50  53
ENDBRANCH  48  49
BRANCH  48  65
ATOM     65  CB  TRP A  20       4.710  -5.501   6.935  0.00  0.00    +0.057 C 
BRANCH  65  66
ATOM     66  CG  TRP A  20       4.830  -4.096   7.507  0.00  0.00    -0.002 A 
ATOM     67  CD1 TRP A  20       4.666  -3.746   8.817  0.00  0.00    +0.068 A 
ATOM     68  NE1 TRP A  20       5.019  -2.435   9.009  0.00  0.00    -0.352 N 
ATOM     69  HE1 TRP A  20       4.990  -1.931   9.918  0.00  0.00    +0.166 HD
ATOM     70  CE2 TRP A  20       5.416  -1.893   7.815  0.00  0.00    +0.056 A 
ATOM     71  CZ2 TRP A  20       5.867  -0.595   7.518  0.00  0.00    +0.017 A 
ATOM     72  CH2 TRP A  20       6.208  -0.320   6.219  0.00  0.00    +0.001 A 
ATOM     73  CZ3 TRP A  20       6.108  -1.307   5.212  0.00  0.00    +0.000 A 
ATOM     74  CE3 TRP A  20       5.656  -2.605   5.512  0.00  0.00    +0.001 A 
ATOM     75  CD2 TRP A  20       5.305  -2.905   6.836  0.00  0.00    +0.013 A 
ENDBRANCH  65  66
ENDBRANCH  48  65
ENDBRANCH  45  48
ENDBRANCH  43  44
BRANCH  43  76
ATOM     76  CB  GLU A  19       2.958  -5.896   1.500  0.00  0.00    +0.041 C 
BRANCH  76  77
ATOM     77  CG  GLU A  19       1.511  -5.824   1.960  0.00  0.00    +0.116 C 
BRANCH  77  78
ATOM     78  CD  GLU A  19       0.488  -6.173   0.867  0.00  0.00    +0.365 C 
ATOM     79  OE2 GLU A  19      -0.623  -6.596   1.231  0.00  0.00    -0.246 OA
ATOM     80  OE1 GLU A  19       0.771  -6.005  -0.341  0.00  0.00    -0.246 OA
ENDBRANCH  77  78
ENDBRANCH  76  77
ENDBRANCH  43  76
ENDBRANCH  40  43
ENDBRANCH  38  39
BRANCH  38  81
ATOM     81  CB  LEU A  18       8.169  -3.251   1.352  0.00  0.00    +0.029 C 
BRANCH  81  82
ATOM     82  CG  LEU A  18       8.909  -3.447   2.688  0.00  0.00    +0.002 C 
ATOM     83  CD2 LEU A  18       8.294  -4.537   3.501  0.00  0.00    +0.000 C 
ATOM     84  CD1 LEU A  18       8.921  -2.144   3.477  0.00  0.00    +0.000 C 
ENDBRANCH  81  82
ENDBRANCH  38  81
ENDBRANCH  35  38
ENDBRANCH  33  34
BRANCH  33  85
ATOM     85  CB  MET A  17       5.063  -5.263  -3.004  0.00  0.00    +0.041 C 
BRANCH  85  86
ATOM     86  CG  MET A  17       4.036  -4.509  -2.190  0.00  0.00    +0.060 C 
BRANCH  86  87
ATOM     87  SD  MET A  17       3.546  -2.966  -3.012  0.00  0.00    -0.139 S 
ATOM     88  CE  MET A  17       2.095  -3.625  -3.974  0.00  0.00    +0.069 C 
ENDBRANCH  86  87
ENDBRANCH  85  86
ENDBRANCH  33  85
ENDBRANCH  30  33
ENDBRANCH  28  29
BRANCH  28  89
ATOM     89  CB  THR A  16      10.490  -5.260  -5.237  0.00  0.00    +0.137 C 
ATOM     90  CG2 THR A  16      10.644  -5.858  -3.827  0.00  0.00    +0.034 C 
BRANCH  89  91
ATOM     91  OG1 THR A  16      11.257  -6.051  -6.169  0.00  0.00    -0.382 OA
ATOM     92  HG1 THR A  16      11.177  -5.661  -7.075  0.00  0.00    +0.210 HD
ENDBRANCH  89  91
ENDBRANCH  28  89
ENDBRANCH  25  28
ENDBRANCH  23  24
BRANCH  23  93
ATOM     93  CB  PHE A  15       7.235  -3.203  -9.136  0.00  0.00    +0.055 C 
BRANCH  93  94
ATOM     94  CG  PHE A  15       5.827  -3.266  -8.608  0.00  0.00    -0.020 A 
ATOM     95  CD2 PHE A  15       5.564  -2.984  -7.270  0.00  0.00    -0.004 A 
ATOM     96  CE2 PHE A  15       4.261  -3.027  -6.762  0.00  0.00    -0.000 A 
ATOM     97  CZ  PHE A  15       3.193  -3.362  -7.603  0.00  0.00    -0.000 A 
ATOM     98  CE1 PHE A  15       3.447  -3.651  -8.950  0.00  0.00    -0.000 A 
ATOM     99  CD1 PHE A  15       4.762  -3.602  -9.444  0.00  0.00    -0.004 A 
ENDBRANCH  93  94
ENDBRANCH  23  93
ENDBRANCH  20  23
ENDBRANCH  18  19
BRANCH  18 100
ATOM    100  CB  GLU A  14       7.260  -7.749 -12.591  0.00  0.00    +0.041 C 
BRANCH 100 101
ATOM    101  CG  GLU A  14       8.563  -7.654 -13.374  0.00  0.00    +0.116 C 
BRANCH 101 102
ATOM    102  CD  GLU A  14       9.193  -9.025 -13.537  0.00  0.00    +0.365 C 
ATOM    103  OE2 GLU A  14       9.492  -9.661 -12.499  0.00  0.00    -0.246 OA
ATOM    104  OE1 GLU A  14       9.377  -9.477 -14.688  0.00  0.00    -0.246 OA
ENDBRANCH 101 102
ENDBRANCH 100 101
ENDBRANCH  18 100
ENDBRANCH  16  18
ENDBRANCH  10  14
ENDBRANCH   6   7
BRANCH   6 105
ATOM    105  CB  ASN A  12       8.374  -2.016 -13.719  0.00  0.00    +0.114 C 
BRANCH 105 106
ATOM    106  CG  ASN A  12       9.085  -2.911 -14.721  0.00  0.00    +0.222 C 
ATOM    107  ND2 ASN A  12       9.263  -4.182 -14.370  0.00  0.00    -0.329 N 
ATOM    108 HD21 ASN A  12       8.939  -4.515 -13.439  0.00  0.00    +0.145 HD
ATOM    109 HD22 ASN A  12       9.726  -4.843 -15.026  0.00  0.00    +0.145 HD
ATOM    110  OD1 ASN A  12       9.450  -2.463 -15.814  0.00  0.00    -0.275 OA
ENDBRANCH 105 106
ENDBRANCH   6 105
ENDBRANCH   3   6
ENDBRANCH   1   2
BRANCH   1 113
ATOM    111  C   TYR A  10       6.727   3.919 -12.039  0.00  0.00    +0.241 C 
ATOM    112  O   TYR A  10       6.231   3.576 -10.961  0.00  0.00    -0.273 OA
ATOM    113  N   HIS A  11       6.639   3.186 -13.145  0.00  0.00    -0.297 N 
ATOM    114  H   HIS A  11       7.106   3.522 -14.012  0.00  0.00    +0.150 HD
BRANCH 111 115
ATOM    115  CA  TYR A  10       7.499   5.231 -12.150  0.00  0.00    +0.153 C 
BRANCH 115 118
ATOM    116  C   ARG A   9       8.871   5.878 -14.049  0.00  0.00    +0.241 C 
ATOM    117  O   ARG A   9       9.914   5.617 -13.447  0.00  0.00    -0.273 OA
ATOM    118  N   TYR A  10       7.668   5.711 -13.514  0.00  0.00    -0.297 N 
ATOM    119  H   TYR A  10       6.825   5.928 -14.083  0.00  0.00    +0.150 HD
BRANCH 116 120
ATOM    120  CA  ARG A   9       8.907   6.420 -15.473  0.00  0.00    +0.149 C 
BRANCH 120 123
ATOM    121  C   GLY A   8       7.673   4.558 -16.392  0.00  0.00    +0.243 C 
ATOM    122  O   GLY A   8       8.456   3.741 -15.901  0.00  0.00    -0.273 OA
ATOM    123  N   ARG A   9       7.816   5.865 -16.249  0.00  0.00    -0.297 N 
ATOM    124  H   ARG A   9       7.133   6.506 -16.701  0.00  0.00    +0.150 HD
BRANCH 121 125
ATOM    125  CA  GLY A   8       6.484   4.112 -17.211  0.00  0.00    +0.176 C 
BRANCH 125 127
ATOM    126  C   MET A   7       6.009   2.061 -18.368  0.00  0.00    +0.241 C 
ATOM    127  N   GLY A   8       6.448   2.670 -17.277  0.00  0.00    -0.295 N 
ATOM    128  H   GLY A   8       6.768   2.107 -16.464  0.00  0.00    +0.150 HD
ATOM    129  O   MET A   7       5.587   2.678 -19.355  0.00  0.00    -0.273 OA
BRANCH 126 130
ATOM    130  CA  MET A   7       6.024   0.532 -18.350  0.00  0.00    +0.149 C 
BRANCH 130 133
ATOM    131  C   GLU A   6       3.607   0.372 -18.522  0.00  0.00    +0.241 C 
ATOM    132  O   GLU A   6       3.452   0.903 -17.425  0.00  0.00    -0.273 OA
ATOM    133  N   MET A   7       4.805   0.124 -19.035  0.00  0.00    -0.297 N 
ATOM    134  H   MET A   7       4.875  -0.373 -19.946  0.00  0.00    +0.150 HD
BRANCH 131 135
ATOM    135  CA  GLU A   6       2.408  -0.056 -19.377  0.00  0.00    +0.149 C 
BRANCH 135 138
ATOM    136  C   GLU A   5       1.438  -1.546 -17.700  0.00  0.00    +0.241 C 
ATOM    137  O   GLU A   5       2.526  -2.047 -17.386  0.00  0.00    -0.273 OA
ATOM    138  N   GLU A   6       1.305  -0.610 -18.624  0.00  0.00    -0.297 N 
ATOM    139  H   GLU A   6       0.349  -0.250 -18.821  0.00  0.00    +0.150 HD
BRANCH 136 140
ATOM    140  CA  GLU A   5       0.121  -1.990 -17.079  0.00  0.00    +0.149 C 
BRANCH 140 142
ATOM    141  C   ASN A   4      -0.863  -4.185 -16.819  0.00  0.00    +0.241 C 
ATOM    142  N   GLU A   5       0.184  -3.385 -16.700  0.00  0.00    -0.297 N 
ATOM    143  H   GLU A   5       1.075  -3.768 -16.325  0.00  0.00    +0.150 HD
ATOM    144  O   ASN A   4      -1.972  -3.811 -17.219  0.00  0.00    -0.273 OA
BRANCH 141 145
ATOM    145  CA  ASN A   4      -0.613  -5.616 -16.408  0.00  0.00    +0.158 C 
BRANCH 145 148
ATOM    146  C   ARG A   3       0.348  -5.379 -14.211  0.00  0.00    +0.241 C 
ATOM    147  O   ARG A   3       1.374  -4.859 -14.654  0.00  0.00    -0.273 OA
ATOM    148  N   ASN A   4      -0.664  -5.774 -14.972  0.00  0.00    -0.297 N 
ATOM    149  H   ASN A   4      -1.503  -6.202 -14.531  0.00  0.00    +0.150 HD
BRANCH 146 150
ATOM    150  CA  ARG A   3       0.182  -5.638 -12.740  0.00  0.00    +0.149 C 
BRANCH 150 153
ATOM    151  C   PHE A   2       1.239  -7.305 -11.313  0.00  0.00    +0.241 C 
ATOM    152  O   PHE A   2       0.173  -7.582 -10.765  0.00  0.00    -0.273 OA
ATOM    153  N   ARG A   3       1.354  -6.388 -12.268  0.00  0.00    -0.297 N 
ATOM    154  H   ARG A   3       2.287  -6.199 -12.687  0.00  0.00    +0.150 HD
BRANCH 151 155
ATOM    155  CA  PHE A   2       2.507  -8.041 -10.942  0.00  0.00    +0.153 C 
BRANCH 155 157
ATOM    156  C   SER A   1       3.956  -7.886  -8.996  0.00  0.00    +0.241 C 
ATOM    157  N   PHE A   2       2.760  -8.174  -9.510  0.00  0.00    -0.297 N 
ATOM    158  H   PHE A   2       1.997  -8.498  -8.882  0.00  0.00    +0.150 HD
ATOM    159  O   SER A   1       4.877  -7.406  -9.665  0.00  0.00    -0.274 OA
BRANCH 156 160
ATOM    160  CA  SER A   1       4.151  -8.164  -7.506  0.00  0.00    +0.174 C 
BRANCH 160 161
ATOM    161  N   SER A   1       5.580  -8.315  -7.265  0.00  0.00    -0.236 NA
ATOM    162  H   SER A   1       6.190  -7.478  -7.360  0.00  0.00    +0.142 HD
ENDBRANCH 160 161
BRANCH 160 163
ATOM    163  CB  SER A   1       3.587  -7.030  -6.644  0.00  0.00    +0.163 C 
BRANCH 163 164
ATOM    164  OG  SER A   1       3.623  -7.416  -5.271  0.00  0.00    -0.380 OA
ATOM    165  H   SER A   1       3.076  -8.232  -5.144  0.00  0.00    +0.211 HD
ENDBRANCH 163 164
ENDBRANCH 160 163
ENDBRANCH 156 160
ENDBRANCH 155 157
BRANCH 155 166
ATOM    166  CB  PHE A   2       2.413  -9.425 -11.578  0.00  0.00    +0.055 C 
BRANCH 166 167
ATOM    167  CG  PHE A   2       3.577 -10.321 -11.271  0.00  0.00    -0.020 A 
ATOM    168  CD2 PHE A   2       3.642 -11.019 -10.060  0.00  0.00    -0.004 A 
ATOM    169  CE2 PHE A   2       4.756 -11.831  -9.767  0.00  0.00    -0.000 A 
ATOM    170  CZ  PHE A   2       5.801 -11.949 -10.683  0.00  0.00    -0.000 A 
ATOM    171  CE1 PHE A   2       5.744 -11.264 -11.897  0.00  0.00    -0.000 A 
ATOM    172  CD1 PHE A   2       4.622 -10.449 -12.182  0.00  0.00    -0.004 A 
ENDBRANCH 166 167
ENDBRANCH 155 166
ENDBRANCH 151 155
ENDBRANCH 150 153
BRANCH 150 173
ATOM    173  CB  ARG A   3       0.025  -4.333 -11.978  0.00  0.00    +0.033 C 
BRANCH 173 174
ATOM    174  CG  ARG A   3      -0.274  -4.593 -10.519  0.00  0.00    +0.045 C 
BRANCH 174 175
ATOM    175  CD  ARG A   3      -0.265  -3.344  -9.687  0.00  0.00    +0.174 C 
BRANCH 175 176
ATOM    176  NE  ARG A   3      -0.340  -3.702  -8.278  0.00  0.00    -0.265 N 
ATOM    177  CZ  ARG A   3      -0.762  -2.886  -7.322  0.00  0.00    +0.342 C 
ATOM    178  NH2 ARG A   3      -0.791  -3.303  -6.062  0.00  0.00    -0.292 N 
ATOM    179 HH21 ARG A   3      -1.122  -2.665  -5.310  0.00  0.00    +0.255 HD
ATOM    180 HH22 ARG A   3      -0.483  -4.268  -5.826  0.00  0.00    +0.255 HD
ATOM    181  NH1 ARG A   3      -1.183  -1.665  -7.632  0.00  0.00    -0.292 N 
ATOM    182 HH11 ARG A   3      -1.514  -1.024  -6.883  0.00  0.00    +0.255 HD
ATOM    183 HH12 ARG A   3      -1.181  -1.350  -8.623  0.00  0.00    +0.255 HD
ATOM    184  HE  ARG A   3      -0.043  -4.660  -8.003  0.00  0.00    +0.259 HD
ENDBRANCH 175 176
ENDBRANCH 174 175
ENDBRANCH 173 174
ENDBRANCH 150 173
ENDBRANCH 146 150
ENDBRANCH 145 148
BRANCH 145 185
ATOM    185  CB  ASN A   4      -1.627  -6.542 -17.084  0.00  0.00    +0.114 C 
BRANCH 185 186
ATOM    186  CG  ASN A   4      -1.402  -6.640 -18.577  0.00  0.00    +0.222 C 
ATOM    187  OD1 ASN A   4      -0.461  -6.050 -19.113  0.00  0.00    -0.275 OA
ATOM    188  ND2 ASN A   4      -2.260  -7.390 -19.261  0.00  0.00    -0.329 N 
ATOM    189 HD21 ASN A   4      -3.040  -7.870 -18.767  0.00  0.00    +0.145 HD
ATOM    190 HD22 ASN A   4      -2.152  -7.497 -20.290  0.00  0.00    +0.145 HD
ENDBRANCH 185 186
ENDBRANCH 145 185
ENDBRANCH 141 145
ENDBRANCH 140 142
BRANCH 140 191
ATOM    191  CB  GLU A   5      -0.268  -1.121 -15.873  0.00  0.00    +0.041 C 
BRANCH 191 192
ATOM    192  CG  GLU A   5       0.566  -1.350 -14.645  0.00  0.00    +0.116 C 
BRANCH 192 193
ATOM    193  CD  GLU A   5      -0.134  -0.936 -13.355  0.00  0.00    +0.365 C 
ATOM    194  OE2 GLU A   5       0.573  -0.557 -12.417  0.00  0.00    -0.246 OA
ATOM    195  OE1 GLU A   5      -1.379  -1.003 -13.260  0.00  0.00    -0.246 OA
ENDBRANCH 192 193
ENDBRANCH 191 192
ENDBRANCH 140 191
ENDBRANCH 136 140
ENDBRANCH 135 138
BRANCH 135 196
ATOM    196  CB  GLU A   6       1.868   1.149 -20.172  0.00  0.00    +0.041 C 
BRANCH 196 197
ATOM    197  CG  GLU A   6       2.737   1.617 -21.310  0.00  0.00    +0.116 C 
BRANCH 197 198
ATOM    198  CD  GLU A   6       2.174   2.848 -22.008  0.00  0.00    +0.365 C 
ATOM    199  OE2 GLU A   6       1.061   3.288 -21.645  0.00  0.00    -0.246 OA
ATOM    200  OE1 GLU A   6       2.845   3.373 -22.922  0.00  0.00    -0.246 OA
ENDBRANCH 197 198
ENDBRANCH 196 197
ENDBRANCH 135 196
ENDBRANCH 131 135
ENDBRANCH 130 133
BRANCH 130 201
ATOM    201  CB  MET A   7       7.240   0.032 -19.126  0.00  0.00    +0.041 C 
BRANCH 201 202
ATOM    202  CG  MET A   7       8.572   0.308 -18.492  0.00  0.00    +0.060 C 
BRANCH 202 203
ATOM    203  SD  MET A   7       9.895  -0.083 -19.652  0.00  0.00    -0.139 S 
ATOM    204  CE  MET A   7      11.037   1.264 -19.274  0.00  0.00    +0.069 C 
ENDBRANCH 202 203
ENDBRANCH 201 202
ENDBRANCH 130 201
ENDBRANCH 126 130
ENDBRANCH 125 127
ENDBRANCH 121 125
ENDBRANCH 120 123
BRANCH 120 205
ATOM    205  CB  ARG A   9       8.791   7.944 -15.444  0.00  0.00    +0.033 C 
BRANCH 205 206
ATOM    206  CG  ARG A   9       9.987   8.634 -14.850  0.00  0.00    +0.045 C 
BRANCH 206 207
ATOM    207  CD  ARG A   9       9.911  10.132 -15.068  0.00  0.00    +0.174 C 
BRANCH 207 208
ATOM    208  NE  ARG A   9      11.045  10.810 -14.447  0.00  0.00    -0.265 N 
ATOM    209  HE  ARG A   9      11.731  10.230 -13.923  0.00  0.00    +0.259 HD
ATOM    210  CZ  ARG A   9      11.258  12.118 -14.508  0.00  0.00    +0.342 C 
ATOM    211  NH2 ARG A   9      12.318  12.646 -13.911  0.00  0.00    -0.292 N 
ATOM    212 HH21 ARG A   9      12.982  12.035 -13.395  0.00  0.00    +0.255 HD
ATOM    213 HH22 ARG A   9      12.485  13.671 -13.959  0.00  0.00    +0.255 HD
ATOM    214  NH1 ARG A   9      10.411  12.898 -15.166  0.00  0.00    -0.292 N 
ATOM    215 HH11 ARG A   9      10.578  13.923 -15.214  0.00  0.00    +0.255 HD
ATOM    216 HH12 ARG A   9       9.580  12.484 -15.634  0.00  0.00    +0.255 HD
ENDBRANCH 207 208
ENDBRANCH 206 207
ENDBRANCH 205 206
ENDBRANCH 120 205
ENDBRANCH 116 120
ENDBRANCH 115 118
BRANCH 115 217
ATOM    217  CB  TYR A  10       6.792   6.305 -11.321  0.00  0.00    +0.055 C 
BRANCH 217 218
ATOM    218  CG  TYR A  10       7.499   7.642 -11.348  0.00  0.00    -0.020 A 
ATOM    219  CD2 TYR A  10       8.805   7.768 -10.878  0.00  0.00    -0.001 A 
ATOM    220  CE2 TYR A  10       9.482   8.978 -10.946  0.00  0.00    +0.036 A 
ATOM    221  CZ  TYR A  10       8.851  10.083 -11.486  0.00  0.00    +0.134 A 
ATOM    222  CE1 TYR A  10       7.550   9.988 -11.955  0.00  0.00    +0.036 A 
ATOM    223  CD1 TYR A  10       6.882   8.767 -11.883  0.00  0.00    -0.001 A 
BRANCH 221 224
ATOM    224  OH  TYR A  10       9.529  11.275 -11.567  0.00  0.00    -0.506 OA
ATOM    225  HH  TYR A  10      10.437  11.163 -11.189  0.00  0.00    +0.292 HD
ENDBRANCH 221 224
ENDBRANCH 217 218
ENDBRANCH 115 217
ENDBRANCH 111 115
ENDBRANCH   1 113
BRANCH   1 226
ATOM    226  CB  HIS A  11       4.513   2.092 -13.830  0.00  0.00    +0.076 C 
BRANCH 226 227
ATOM    227  CG  HIS A  11       3.548   2.926 -13.048  0.00  0.00    +0.082 A 
ATOM    228  CD2 HIS A  11       2.489   2.574 -12.280  0.00  0.00    +0.115 A 
ATOM    229  NE2 HIS A  11       1.930   3.735 -11.801  0.00  0.00    -0.221 NA
ATOM    230  CE1 HIS A  11       2.622   4.764 -12.259  0.00  0.00    +0.199 A 
ATOM    231  ND1 HIS A  11       3.604   4.305 -13.014  0.00  0.00    -0.227 NA
ENDBRANCH 226 227
ENDBRANCH   1 226
TORSDOF 91
REMARK  Name = ../refined-set-2016/3a5y/3a5y_pocket.pdb
REMARK  262 active torsions:
REMARK  status: ('A' for Active; 'I' for Inactive)
REMARK    1  A    between atoms: _1  and  _3
REMARK    2  A    between atoms: _3  and  _4
REMARK    3  A    between atoms: _3  and  _6
REMARK    4  A    between atoms: _9  and  _11
REMARK    5  A    between atoms: _11  and  _12
REMARK    6  A    between atoms: _11  and  _14
REMARK    7  A    between atoms: _14  and  _15
REMARK    8  A    between atoms: _18  and  _20
REMARK    9  A    between atoms: _20  and  _21
REMARK   10  A    between atoms: _20  and  _23
REMARK   11  A    between atoms: _23  and  _24
REMARK   12  A    between atoms: _29  and  _31
REMARK   13  A    between atoms: _31  and  _32
REMARK   14  A    between atoms: _31  and  _34
REMARK   15  A    between atoms: _34  and  _35
REMARK   16  A    between atoms: _38  and  _40
REMARK   17  A    between atoms: _40  and  _41
REMARK   18  A    between atoms: _40  and  _43
REMARK   19  A    between atoms: _43  and  _44
REMARK   20  A    between atoms: _47  and  _49
REMARK   21  A    between atoms: _49  and  _50
REMARK   22  A    between atoms: _49  and  _52
REMARK   23  A    between atoms: _52  and  _53
REMARK   24  A    between atoms: _56  and  _57
REMARK   25  A    between atoms: _62  and  _64
REMARK   26  A    between atoms: _64  and  _65
REMARK   27  A    between atoms: _64  and  _67
REMARK   28  A    between atoms: _67  and  _68
REMARK   29  A    between atoms: _68  and  _69
REMARK   30  A    between atoms: _72  and  _74
REMARK   31  A    between atoms: _74  and  _75
REMARK   32  A    between atoms: _74  and  _77
REMARK   33  A    between atoms: _77  and  _78
REMARK   34  A    between atoms: _83  and  _84
REMARK   35  A    between atoms: _86  and  _88
REMARK   36  A    between atoms: _88  and  _89
REMARK   37  A    between atoms: _88  and  _91
REMARK   38  A    between atoms: _91  and  _92
REMARK   39  A    between atoms: _92  and  _93
REMARK   40  A    between atoms: _95  and  _97
REMARK   41  A    between atoms: _97  and  _98
REMARK   42  A    between atoms: _97  and  _100
REMARK   43  A    between atoms: _100  and  _101
REMARK   44  A    between atoms: _101  and  _102
REMARK   45  A    between atoms: _102  and  _103
REMARK   46  A    between atoms: _103  and  _104
REMARK   47  A    between atoms: _108  and  _110
REMARK   48  A    between atoms: _110  and  _111
REMARK   49  A    between atoms: _110  and  _113
REMARK   50  A    between atoms: _113  and  _114
REMARK   51  A    between atoms: _116  and  _118
REMARK   52  A    between atoms: _118  and  _119
REMARK   53  A    between atoms: _118  and  _121
REMARK   54  A    between atoms: _121  and  _122
REMARK   55  A    between atoms: _128  and  _130
REMARK   56  A    between atoms: _130  and  _131
REMARK   57  A    between atoms: _130  and  _133
REMARK   58  A    between atoms: _133  and  _134
REMARK   59  A    between atoms: _134  and  _135
REMARK   60  A    between atoms: _135  and  _136
REMARK   61  A    between atoms: _145  and  _147
REMARK   62  A    between atoms: _147  and  _148
REMARK   63  A    between atoms: _147  and  _150
REMARK   64  A    between atoms: _150  and  _151
REMARK   65  A    between atoms: _156  and  _158
REMARK   66  A    between atoms: _158  and  _159
REMARK   67  A    between atoms: _158  and  _161
REMARK   68  A    between atoms: _161  and  _162
REMARK   69  A    between atoms: _162  and  _163
REMARK   70  A    between atoms: _166  and  _168
REMARK   71  A    between atoms: _168  and  _169
REMARK   72  A    between atoms: _168  and  _171
REMARK   73  A    between atoms: _171  and  _172
REMARK   74  A    between atoms: _172  and  _173
REMARK   75  A    between atoms: _176  and  _178
REMARK   76  A    between atoms: _178  and  _179
REMARK   77  A    between atoms: _178  and  _181
REMARK   78  A    between atoms: _181  and  _182
REMARK   79  A    between atoms: _182  and  _183
REMARK   80  A    between atoms: _185  and  _187
REMARK   81  A    between atoms: _187  and  _188
REMARK   82  A    between atoms: _190  and  _192
REMARK   83  A    between atoms: _192  and  _193
REMARK   84  A    between atoms: _192  and  _195
REMARK   85  A    between atoms: _195  and  _196
REMARK   86  A    between atoms: _196  and  _197
REMARK   87  A    between atoms: _197  and  _198
REMARK   88  A    between atoms: _207  and  _209
REMARK   89  A    between atoms: _209  and  _210
REMARK   90  A    between atoms: _209  and  _212
REMARK   91  A    between atoms: _212  and  _213
REMARK   92  A    between atoms: _218  and  _219
REMARK   93  A    between atoms: _221  and  _223
REMARK   94  A    between atoms: _223  and  _224
REMARK   95  A    between atoms: _223  and  _226
REMARK   96  A    between atoms: _226  and  _227
REMARK   97  A    between atoms: _232  and  _234
REMARK   98  A    between atoms: _234  and  _235
REMARK   99  A    between atoms: _234  and  _237
REMARK  100  A    between atoms: _237  and  _238
REMARK  101  A    between atoms: _244  and  _245
REMARK  102  A    between atoms: _250  and  _252
REMARK  103  A    between atoms: _252  and  _253
REMARK  104  A    between atoms: _252  and  _255
REMARK  105  A    between atoms: _255  and  _256
REMARK  106  A    between atoms: _256  and  _257
REMARK  107  A    between atoms: _260  and  _262
REMARK  108  A    between atoms: _262  and  _263
REMARK  109  A    between atoms: _262  and  _265
REMARK  110  A    between atoms: _265  and  _266
REMARK  111  A    between atoms: _272  and  _274
REMARK  112  A    between atoms: _274  and  _275
REMARK  113  A    between atoms: _274  and  _277
REMARK  114  A    between atoms: _277  and  _278
REMARK  115  A    between atoms: _281  and  _283
REMARK  116  A    between atoms: _283  and  _284
REMARK  117  A    between atoms: _283  and  _286
REMARK  118  A    between atoms: _286  and  _287
REMARK  119  A    between atoms: _287  and  _288
REMARK  120  A    between atoms: _290  and  _292
REMARK  121  A    between atoms: _292  and  _293
REMARK  122  A    between atoms: _292  and  _295
REMARK  123  A    between atoms: _295  and  _296
REMARK  124  A    between atoms: _299  and  _301
REMARK  125  A    between atoms: _301  and  _302
REMARK  126  A    between atoms: _301  and  _304
REMARK  127  A    between atoms: _304  and  _305
REMARK  128  A    between atoms: _305  and  _306
REMARK  129  A    between atoms: _309  and  _311
REMARK  130  A    between atoms: _311  and  _312
REMARK  131  A    between atoms: _311  and  _314
REMARK  132  A    between atoms: _314  and  _315
REMARK  133  A    between atoms: _325  and  _327
REMARK  134  A    between atoms: _327  and  _328
REMARK  135  A    between atoms: _327  and  _330
REMARK  136  A    between atoms: _330  and  _331
REMARK  137  A    between atoms: _336  and  _337
REMARK  138  A    between atoms: _339  and  _341
REMARK  139  A    between atoms: _341  and  _342
REMARK  140  A    between atoms: _341  and  _344
REMARK  141  A    between atoms: _344  and  _345
REMARK  142  A    between atoms: _348  and  _350
REMARK  143  A    between atoms: _350  and  _351
REMARK  144  A    between atoms: _350  and  _353
REMARK  145  A    between atoms: _353  and  _354
REMARK  146  A    between atoms: _356  and  _358
REMARK  147  A    between atoms: _358  and  _359
REMARK  148  A    between atoms: _358  and  _361
REMARK  149  A    between atoms: _361  and  _362
REMARK  150  A    between atoms: _365  and  _367
REMARK  151  A    between atoms: _367  and  _368
REMARK  152  A    between atoms: _371  and  _373
REMARK  153  A    between atoms: _373  and  _374
REMARK  154  A    between atoms: _373  and  _376
REMARK  155  A    between atoms: _376  and  _377
REMARK  156  A    between atoms: _377  and  _378
REMARK  157  A    between atoms: _381  and  _383
REMARK  158  A    between atoms: _383  and  _384
REMARK  159  A    between atoms: _383  and  _386
REMARK  160  A    between atoms: _386  and  _387
REMARK  161  A    between atoms: _387  and  _388
REMARK  162  A    between atoms: _388  and  _389
REMARK  163  A    between atoms: _398  and  _400
REMARK  164  A    between atoms: _400  and  _401
REMARK  165  A    between atoms: _400  and  _403
REMARK  166  A    between atoms: _403  and  _404
REMARK  167  A    between atoms: _410  and  _412
REMARK  168  A    between atoms: _412  and  _413
REMARK  169  A    between atoms: _412  and  _415
REMARK  170  A    between atoms: _415  and  _416
REMARK  171  A    between atoms: _416  and  _417
REMARK  172  A    between atoms: _420  and  _422
REMARK  173  A    between atoms: _422  and  _423
REMARK  174  A    between atoms: _422  and  _425
REMARK  175  A    between atoms: _428  and  _430
REMARK  176  A    between atoms: _430  and  _431
REMARK  177  A    between atoms: _430  and  _433
REMARK  178  A    between atoms: _433  and  _434
REMARK  179  A    between atoms: _439  and  _440
REMARK  180  A    between atoms: _442  and  _444
REMARK  181  A    between atoms: _444  and  _445
REMARK  182  A    between atoms: _444  and  _447
REMARK  183  A    between atoms: _447  and  _448
REMARK  184  A    between atoms: _451  and  _453
REMARK  185  A    between atoms: _453  and  _454
REMARK  186  A    between atoms: _453  and  _456
REMARK  187  A    between atoms: _456  and  _457
REMARK  188  A    between atoms: _457  and  _458
REMARK  189  A    between atoms: _461  and  _463
REMARK  190  A    between atoms: _463  and  _464
REMARK  191  A    between atoms: _463  and  _466
REMARK  192  A    between atoms: _466  and  _467
REMARK  193  A    between atoms: _470  and  _472
REMARK  194  A    between atoms: _472  and  _473
REMARK  195  A    between atoms: _476  and  _478
REMARK  196  A    between atoms: _478  and  _479
REMARK  197  A    between atoms: _478  and  _481
REMARK  198  A    between atoms: _481  and  _482
REMARK  199  A    between atoms: _487  and  _489
REMARK  200  A    between atoms: _489  and  _490
REMARK  201  A    between atoms: _492  and  _494
REMARK  202  A    between atoms: _494  and  _495
REMARK  203  A    between atoms: _494  and  _497
REMARK  204  A    between atoms: _497  and  _498
REMARK  205  A    between atoms: _504  and  _506
REMARK  206  A    between atoms: _506  and  _507
REMARK  207  A    between atoms: _506  and  _509
REMARK  208  A    between atoms: _509  and  _510
REMARK  209  A    between atoms: _515  and  _517
REMARK  210  A    between atoms: _517  and  _518
REMARK  211  A    between atoms: _517  and  _520
REMARK  212  A    between atoms: _520  and  _521
REMARK  213  A    between atoms: _521  and  _522
REMARK  214  A    between atoms: _525  and  _527
REMARK  215  A    between atoms: _527  and  _528
REMARK  216  A    between atoms: _527  and  _530
REMARK  217  A    between atoms: _530  and  _531
REMARK  218  A    between atoms: _534  and  _536
REMARK  219  A    between atoms: _536  and  _537
REMARK  220  A    between atoms: _536  and  _539
REMARK  221  A    between atoms: _541  and  _543
REMARK  222  A    between atoms: _543  and  _544
REMARK  223  A    between atoms: _543  and  _546
REMARK  224  A    between atoms: _546  and  _547
REMARK  225  A    between atoms: _549  and  _551
REMARK  226  A    between atoms: _551  and  _552
REMARK  227  A    between atoms: _554  and  _556
REMARK  228  A    between atoms: _556  and  _557
REMARK  229  A    between atoms: _556  and  _559
REMARK  230  A    between atoms: _562  and  _564
REMARK  231  A    between atoms: _564  and  _565
REMARK  232  A    between atoms: _568  and  _570
REMARK  233  A    between atoms: _570  and  _571
REMARK  234  A    between atoms: _570  and  _573
REMARK  235  A    between atoms: _573  and  _574
REMARK  236  A    between atoms: _577  and  _579
REMARK  237  A    between atoms: _579  and  _580
REMARK  238  A    between atoms: _582  and  _584
REMARK  239  A    between atoms: _584  and  _585
REMARK  240  A    between atoms: _584  and  _587
REMARK  241  A    between atoms: _590  and  _592
REMARK  242  A    between atoms: _592  and  _593
REMARK  243  A    between atoms: _592  and  _595
REMARK  244  A    between atoms: _595  and  _596
REMARK  245  A    between atoms: _599  and  _601
REMARK  246  A    between atoms: _601  and  _602
REMARK  247  A    between atoms: _601  and  _604
REMARK  248  A    between atoms: _604  and  _605
REMARK  249  A    between atoms: _605  and  _606
REMARK  250  A    between atoms: _606  and  _607
REMARK  251  A    between atoms: _616  and  _618
REMARK  252  A    between atoms: _618  and  _619
REMARK  253  A    between atoms: _618  and  _621
REMARK  254  A    between atoms: _621  and  _622
REMARK  255  A    between atoms: _625  and  _627
REMARK  256  A    between atoms: _627  and  _628
REMARK  257  A    between atoms: _627  and  _630
REMARK  258  A    between atoms: _630  and  _631
REMARK  259  A    between atoms: _634  and  _636
REMARK  260  A    between atoms: _636  and  _637
REMARK  261  A    between atoms: _636  and  _639
REMARK  262  A    between atoms: _639  and  _640
REMARK                            x       y       z     vdW  Elec       q    Type
REMARK                         _______ _______ _______ _____ _____    ______ ____
ROOT
ATOM      1  CA  LEU A   1       1.304   1.748  11.680  0.00  0.00    +0.133 C 
ENDROOT
BRANCH   1   2
ATOM      2  N   LEU A   1       0.653   2.307  12.864  0.00  0.00    -0.239 NA
ATOM      3  H   LEU A   1      -0.380   2.249  12.974  0.00  0.00    +0.142 HD
ENDBRANCH   1   2
BRANCH   1   4
ATOM      4  C   LEU A   1       1.965   2.851  10.858  0.00  0.00    +0.224 C 
ATOM      5  O   LEU A   1       3.103   2.690  10.416  0.00  0.00    -0.287 OA
ENDBRANCH   1   4
BRANCH   1   6
ATOM      6  CB  LEU A   1       0.307   0.951  10.822  0.00  0.00    +0.025 C 
BRANCH   6   7
ATOM      7  CG  LEU A   1       0.905   0.283   9.565  0.00  0.00    +0.002 C 
ATOM      8  CD2 LEU A   1       2.042  -0.644   9.975  0.00  0.00    +0.000 C 
ATOM      9  CD1 LEU A   1      -0.168  -0.499   8.808  0.00  0.00    +0.000 C 
ENDBRANCH   6   7
ENDBRANCH   1   6
TORSDOF 4
REMARK  Name = ../refined-set-2016/3a5y/3a5y_pocket.pdb
REMARK  262 active torsions:
REMARK  status: ('A' for Active; 'I' for Inactive)
REMARK    1  A    between atoms: _1  and  _3
REMARK    2  A    between atoms: _3  and  _4
REMARK    3  A    between atoms: _3  and  _6
REMARK    4  A    between atoms: _9  and  _11
REMARK    5  A    between atoms: _11  and  _12
REMARK    6  A    between atoms: _11  and  _14
REMARK    7  A    between atoms: _14  and  _15
REMARK    8  A    between atoms: _18  and  _20
REMARK    9  A    between atoms: _20  and  _21
REMARK   10  A    between atoms: _20  and  _23
REMARK   11  A    between atoms: _23  and  _24
REMARK   12  A    between atoms: _29  and  _31
REMARK   13  A    between atoms: _31  and  _32
REMARK   14  A    between atoms: _31  and  _34
REMARK   15  A    between atoms: _34  and  _35
REMARK   16  A    between atoms: _38  and  _40
REMARK   17  A    between atoms: _40  and  _41
REMARK   18  A    between atoms: _40  and  _43
REMARK   19  A    between atoms: _43  and  _44
REMARK   20  A    between atoms: _47  and  _49
REMARK   21  A    between atoms: _49  and  _50
REMARK   22  A    between atoms: _49  and  _52
REMARK   23  A    between atoms: _52  and  _53
REMARK   24  A    between atoms: _56  and  _57
REMARK   25  A    between atoms: _62  and  _64
REMARK   26  A    between atoms: _64  and  _65
REMARK   27  A    between atoms: _64  and  _67
REMARK   28  A    between atoms: _67  and  _68
REMARK   29  A    between atoms: _68  and  _69
REMARK   30  A    between atoms: _72  and  _74
REMARK   31  A    between atoms: _74  and  _75
REMARK   32  A    between atoms: _74  and  _77
REMARK   33  A    between atoms: _77  and  _78
REMARK   34  A    between atoms: _83  and  _84
REMARK   35  A    between atoms: _86  and  _88
REMARK   36  A    between atoms: _88  and  _89
REMARK   37  A    between atoms: _88  and  _91
REMARK   38  A    between atoms: _91  and  _92
REMARK   39  A    between atoms: _92  and  _93
REMARK   40  A    between atoms: _95  and  _97
REMARK   41  A    between atoms: _97  and  _98
REMARK   42  A    between atoms: _97  and  _100
REMARK   43  A    between atoms: _100  and  _101
REMARK   44  A    between atoms: _101  and  _102
REMARK   45  A    between atoms: _102  and  _103
REMARK   46  A    between atoms: _103  and  _104
REMARK   47  A    between atoms: _108  and  _110
REMARK   48  A    between atoms: _110  and  _111
REMARK   49  A    between atoms: _110  and  _113
REMARK   50  A    between atoms: _113  and  _114
REMARK   51  A    between atoms: _116  and  _118
REMARK   52  A    between atoms: _118  and  _119
REMARK   53  A    between atoms: _118  and  _121
REMARK   54  A    between atoms: _121  and  _122
REMARK   55  A    between atoms: _128  and  _130
REMARK   56  A    between atoms: _130  and  _131
REMARK   57  A    between atoms: _130  and  _133
REMARK   58  A    between atoms: _133  and  _134
REMARK   59  A    between atoms: _134  and  _135
REMARK   60  A    between atoms: _135  and  _136
REMARK   61  A    between atoms: _145  and  _147
REMARK   62  A    between atoms: _147  and  _148
REMARK   63  A    between atoms: _147  and  _150
REMARK   64  A    between atoms: _150  and  _151
REMARK   65  A    between atoms: _156  and  _158
REMARK   66  A    between atoms: _158  and  _159
REMARK   67  A    between atoms: _158  and  _161
REMARK   68  A    between atoms: _161  and  _162
REMARK   69  A    between atoms: _162  and  _163
REMARK   70  A    between atoms: _166  and  _168
REMARK   71  A    between atoms: _168  and  _169
REMARK   72  A    between atoms: _168  and  _171
REMARK   73  A    between atoms: _171  and  _172
REMARK   74  A    between atoms: _172  and  _173
REMARK   75  A    between atoms: _176  and  _178
REMARK   76  A    between atoms: _178  and  _179
REMARK   77  A    between atoms: _178  and  _181
REMARK   78  A    between atoms: _181  and  _182
REMARK   79  A    between atoms: _182  and  _183
REMARK   80  A    between atoms: _185  and  _187
REMARK   81  A    between atoms: _187  and  _188
REMARK   82  A    between atoms: _190  and  _192
REMARK   83  A    between atoms: _192  and  _193
REMARK   84  A    between atoms: _192  and  _195
REMARK   85  A    between atoms: _195  and  _196
REMARK   86  A    between atoms: _196  and  _197
REMARK   87  A    between atoms: _197  and  _198
REMARK   88  A    between atoms: _207  and  _209
REMARK   89  A    between atoms: _209  and  _210
REMARK   90  A    between atoms: _209  and  _212
REMARK   91  A    between atoms: _212  and  _213
REMARK   92  A    between atoms: _218  and  _219
REMARK   93  A    between atoms: _221  and  _223
REMARK   94  A    between atoms: _223  and  _224
REMARK   95  A    between atoms: _223  and  _226
REMARK   96  A    between atoms: _226  and  _227
REMARK   97  A    between atoms: _232  and  _234
REMARK   98  A    between atoms: _234  and  _235
REMARK   99  A    between atoms: _234  and  _237
REMARK  100  A    between atoms: _237  and  _238
REMARK  101  A    between atoms: _244  and  _245
REMARK  102  A    between atoms: _250  and  _252
REMARK  103  A    between atoms: _252  and  _253
REMARK  104  A    between atoms: _252  and  _255
REMARK  105  A    between atoms: _255  and  _256
REMARK  106  A    between atoms: _256  and  _257
REMARK  107  A    between atoms: _260  and  _262
REMARK  108  A    between atoms: _262  and  _263
REMARK  109  A    between atoms: _262  and  _265
REMARK  110  A    between atoms: _265  and  _266
REMARK  111  A    between atoms: _272  and  _274
REMARK  112  A    between atoms: _274  and  _275
REMARK  113  A    between atoms: _274  and  _277
REMARK  114  A    between atoms: _277  and  _278
REMARK  115  A    between atoms: _281  and  _283
REMARK  116  A    between atoms: _283  and  _284
REMARK  117  A    between atoms: _283  and  _286
REMARK  118  A    between atoms: _286  and  _287
REMARK  119  A    between atoms: _287  and  _288
REMARK  120  A    between atoms: _290  and  _292
REMARK  121  A    between atoms: _292  and  _293
REMARK  122  A    between atoms: _292  and  _295
REMARK  123  A    between atoms: _295  and  _296
REMARK  124  A    between atoms: _299  and  _301
REMARK  125  A    between atoms: _301  and  _302
REMARK  126  A    between atoms: _301  and  _304
REMARK  127  A    between atoms: _304  and  _305
REMARK  128  A    between atoms: _305  and  _306
REMARK  129  A    between atoms: _309  and  _311
REMARK  130  A    between atoms: _311  and  _312
REMARK  131  A    between atoms: _311  and  _314
REMARK  132  A    between atoms: _314  and  _315
REMARK  133  A    between atoms: _325  and  _327
REMARK  134  A    between atoms: _327  and  _328
REMARK  135  A    between atoms: _327  and  _330
REMARK  136  A    between atoms: _330  and  _331
REMARK  137  A    between atoms: _336  and  _337
REMARK  138  A    between atoms: _339  and  _341
REMARK  139  A    between atoms: _341  and  _342
REMARK  140  A    between atoms: _341  and  _344
REMARK  141  A    between atoms: _344  and  _345
REMARK  142  A    between atoms: _348  and  _350
REMARK  143  A    between atoms: _350  and  _351
REMARK  144  A    between atoms: _350  and  _353
REMARK  145  A    between atoms: _353  and  _354
REMARK  146  A    between atoms: _356  and  _358
REMARK  147  A    between atoms: _358  and  _359
REMARK  148  A    between atoms: _358  and  _361
REMARK  149  A    between atoms: _361  and  _362
REMARK  150  A    between atoms: _365  and  _367
REMARK  151  A    between atoms: _367  and  _368
REMARK  152  A    between atoms: _371  and  _373
REMARK  153  A    between atoms: _373  and  _374
REMARK  154  A    between atoms: _373  and  _376
REMARK  155  A    between atoms: _376  and  _377
REMARK  156  A    between atoms: _377  and  _378
REMARK  157  A    between atoms: _381  and  _383
REMARK  158  A    between atoms: _383  and  _384
REMARK  159  A    between atoms: _383  and  _386
REMARK  160  A    between atoms: _386  and  _387
REMARK  161  A    between atoms: _387  and  _388
REMARK  162  A    between atoms: _388  and  _389
REMARK  163  A    between atoms: _398  and  _400
REMARK  164  A    between atoms: _400  and  _401
REMARK  165  A    between atoms: _400  and  _403
REMARK  166  A    between atoms: _403  and  _404
REMARK  167  A    between atoms: _410  and  _412
REMARK  168  A    between atoms: _412  and  _413
REMARK  169  A    between atoms: _412  and  _415
REMARK  170  A    between atoms: _415  and  _416
REMARK  171  A    between atoms: _416  and  _417
REMARK  172  A    between atoms: _420  and  _422
REMARK  173  A    between atoms: _422  and  _423
REMARK  174  A    between atoms: _422  and  _425
REMARK  175  A    between atoms: _428  and  _430
REMARK  176  A    between atoms: _430  and  _431
REMARK  177  A    between atoms: _430  and  _433
REMARK  178  A    between atoms: _433  and  _434
REMARK  179  A    between atoms: _439  and  _440
REMARK  180  A    between atoms: _442  and  _444
REMARK  181  A    between atoms: _444  and  _445
REMARK  182  A    between atoms: _444  and  _447
REMARK  183  A    between atoms: _447  and  _448
REMARK  184  A    between atoms: _451  and  _453
REMARK  185  A    between atoms: _453  and  _454
REMARK  186  A    between atoms: _453  and  _456
REMARK  187  A    between atoms: _456  and  _457
REMARK  188  A    between atoms: _457  and  _458
REMARK  189  A    between atoms: _461  and  _463
REMARK  190  A    between atoms: _463  and  _464
REMARK  191  A    between atoms: _463  and  _466
REMARK  192  A    between atoms: _466  and  _467
REMARK  193  A    between atoms: _470  and  _472
REMARK  194  A    between atoms: _472  and  _473
REMARK  195  A    between atoms: _476  and  _478
REMARK  196  A    between atoms: _478  and  _479
REMARK  197  A    between atoms: _478  and  _481
REMARK  198  A    between atoms: _481  and  _482
REMARK  199  A    between atoms: _487  and  _489
REMARK  200  A    between atoms: _489  and  _490
REMARK  201  A    between atoms: _492  and  _494
REMARK  202  A    between atoms: _494  and  _495
REMARK  203  A    between atoms: _494  and  _497
REMARK  204  A    between atoms: _497  and  _498
REMARK  205  A    between atoms: _504  and  _506
REMARK  206  A    between atoms: _506  and  _507
REMARK  207  A    between atoms: _506  and  _509
REMARK  208  A    between atoms: _509  and  _510
REMARK  209  A    between atoms: _515  and  _517
REMARK  210  A    between atoms: _517  and  _518
REMARK  211  A    between atoms: _517  and  _520
REMARK  212  A    between atoms: _520  and  _521
REMARK  213  A    between atoms: _521  and  _522
REMARK  214  A    between atoms: _525  and  _527
REMARK  215  A    between atoms: _527  and  _528
REMARK  216  A    between atoms: _527  and  _530
REMARK  217  A    between atoms: _530  and  _531
REMARK  218  A    between atoms: _534  and  _536
REMARK  219  A    between atoms: _536  and  _537
REMARK  220  A    between atoms: _536  and  _539
REMARK  221  A    between atoms: _541  and  _543
REMARK  222  A    between atoms: _543  and  _544
REMARK  223  A    between atoms: _543  and  _546
REMARK  224  A    between atoms: _546  and  _547
REMARK  225  A    between atoms: _549  and  _551
REMARK  226  A    between atoms: _551  and  _552
REMARK  227  A    between atoms: _554  and  _556
REMARK  228  A    between atoms: _556  and  _557
REMARK  229  A    between atoms: _556  and  _559
REMARK  230  A    between atoms: _562  and  _564
REMARK  231  A    between atoms: _564  and  _565
REMARK  232  A    between atoms: _568  and  _570
REMARK  233  A    between atoms: _570  and  _571
REMARK  234  A    between atoms: _570  and  _573
REMARK  235  A    between atoms: _573  and  _574
REMARK  236  A    between atoms: _577  and  _579
REMARK  237  A    between atoms: _579  and  _580
REMARK  238  A    between atoms: _582  and  _584
REMARK  239  A    between atoms: _584  and  _585
REMARK  240  A    between atoms: _584  and  _587
REMARK  241  A    between atoms: _590  and  _592
REMARK  242  A    between atoms: _592  and  _593
REMARK  243  A    between atoms: _592  and  _595
REMARK  244  A    between atoms: _595  and  _596
REMARK  245  A    between atoms: _599  and  _601
REMARK  246  A    between atoms: _601  and  _602
REMARK  247  A    between atoms: _601  and  _604
REMARK  248  A    between atoms: _604  and  _605
REMARK  249  A    between atoms: _605  and  _606
REMARK  250  A    between atoms: _606  and  _607
REMARK  251  A    between atoms: _616  and  _618
REMARK  252  A    between atoms: _618  and  _619
REMARK  253  A    between atoms: _618  and  _621
REMARK  254  A    between atoms: _621  and  _622
REMARK  255  A    between atoms: _625  and  _627
REMARK  256  A    between atoms: _627  and  _628
REMARK  257  A    between atoms: _627  and  _630
REMARK  258  A    between atoms: _630  and  _631
REMARK  259  A    between atoms: _634  and  _636
REMARK  260  A    between atoms: _636  and  _637
REMARK  261  A    between atoms: _636  and  _639
REMARK  262  A    between atoms: _639  and  _640
REMARK                            x       y       z     vdW  Elec       q    Type
REMARK                         _______ _______ _______ _____ _____    ______ ____
ROOT
ATOM      1  CA  LEU A   2     -10.210  -3.270   2.155  0.00  0.00    +0.149 C 
ENDROOT
BRANCH   1   3
ATOM      2  C   SER A   1     -11.064  -1.696   0.496  0.00  0.00    +0.241 C 
ATOM      3  N   LEU A   2     -10.032  -2.194   1.176  0.00  0.00    -0.297 N 
ATOM      4  H   LEU A   2      -9.080  -1.811   1.008  0.00  0.00    +0.150 HD
ATOM      5  O   SER A   1     -12.204  -2.127   0.633  0.00  0.00    -0.274 OA
BRANCH   2   6
ATOM      6  CA  SER A   1     -10.790  -0.553  -0.493  0.00  0.00    +0.174 C 
BRANCH   6   7
ATOM      7  N   SER A   1     -11.520   0.635  -0.037  0.00  0.00    -0.236 NA
ATOM      8  H   SER A   1     -12.219   1.078  -0.666  0.00  0.00    +0.142 HD
ENDBRANCH   6   7
BRANCH   6   9
ATOM      9  CB  SER A   1      -9.292  -0.268  -0.569  0.00  0.00    +0.163 C 
BRANCH   9  10
ATOM     10  OG  SER A   1      -8.598  -1.397  -1.063  0.00  0.00    -0.380 OA
ATOM     11  H   SER A   1      -7.630  -1.195  -1.106  0.00  0.00    +0.211 HD
ENDBRANCH   9  10
ENDBRANCH   6   9
ENDBRANCH   2   6
ENDBRANCH   1   3
BRANCH   1  12
ATOM     12  C   LEU A   2     -10.029  -2.702   3.559  0.00  0.00    +0.241 C 
ATOM     13  O   LEU A   2      -9.731  -3.443   4.502  0.00  0.00    -0.273 OA
ATOM     14  N   ALA A   3     -10.190  -1.390   3.686  0.00  0.00    -0.298 N 
ATOM     15  H   ALA A   3     -10.416  -0.823   2.844  0.00  0.00    +0.150 HD
BRANCH  14  16
ATOM     16  CA  ALA A   3     -10.057  -0.723   4.981  0.00  0.00    +0.137 C 
ATOM     17  CB  ALA A   3      -9.467   0.689   4.793  0.00  0.00    +0.030 C 
BRANCH  16  18
ATOM     18  C   ALA A   3     -11.402  -0.619   5.693  0.00  0.00    +0.227 C 
ATOM     19  O   ALA A   3     -12.460  -0.571   5.052  0.00  0.00    -0.286 OA
ENDBRANCH  16  18
ENDBRANCH  14  16
ENDBRANCH   1  12
BRANCH   1  20
ATOM     20  CB  LEU A   2      -9.179  -4.395   1.964  0.00  0.00    +0.029 C 
BRANCH  20  21
ATOM     21  CG  LEU A   2      -9.049  -5.271   0.707  0.00  0.00    +0.002 C 
ATOM     22  CD2 LEU A   2      -9.523  -6.675   1.019  0.00  0.00    +0.000 C 
ATOM     23  CD1 LEU A   2      -9.785  -4.666  -0.459  0.00  0.00    +0.000 C 
ENDBRANCH  20  21
ENDBRANCH   1  20
TORSDOF 10
REMARK  Name = ../refined-set-2016/3a5y/3a5y_pocket.pdb
REMARK  262 active torsions:
REMARK  status: ('A' for Active; 'I' for Inactive)
REMARK    1  A    between atoms: _1  and  _3
REMARK    2  A    between atoms: _3  and  _4
REMARK    3  A    between atoms: _3  and  _6
REMARK    4  A    between atoms: _9  and  _11
REMARK    5  A    between atoms: _11  and  _12
REMARK    6  A    between atoms: _11  and  _14
REMARK    7  A    between atoms: _14  and  _15
REMARK    8  A    between atoms: _18  and  _20
REMARK    9  A    between atoms: _20  and  _21
REMARK   10  A    between atoms: _20  and  _23
REMARK   11  A    between atoms: _23  and  _24
REMARK   12  A    between atoms: _29  and  _31
REMARK   13  A    between atoms: _31  and  _32
REMARK   14  A    between atoms: _31  and  _34
REMARK   15  A    between atoms: _34  and  _35
REMARK   16  A    between atoms: _38  and  _40
REMARK   17  A    between atoms: _40  and  _41
REMARK   18  A    between atoms: _40  and  _43
REMARK   19  A    between atoms: _43  and  _44
REMARK   20  A    between atoms: _47  and  _49
REMARK   21  A    between atoms: _49  and  _50
REMARK   22  A    between atoms: _49  and  _52
REMARK   23  A    between atoms: _52  and  _53
REMARK   24  A    between atoms: _56  and  _57
REMARK   25  A    between atoms: _62  and  _64
REMARK   26  A    between atoms: _64  and  _65
REMARK   27  A    between atoms: _64  and  _67
REMARK   28  A    between atoms: _67  and  _68
REMARK   29  A    between atoms: _68  and  _69
REMARK   30  A    between atoms: _72  and  _74
REMARK   31  A    between atoms: _74  and  _75
REMARK   32  A    between atoms: _74  and  _77
REMARK   33  A    between atoms: _77  and  _78
REMARK   34  A    between atoms: _83  and  _84
REMARK   35  A    between atoms: _86  and  _88
REMARK   36  A    between atoms: _88  and  _89
REMARK   37  A    between atoms: _88  and  _91
REMARK   38  A    between atoms: _91  and  _92
REMARK   39  A    between atoms: _92  and  _93
REMARK   40  A    between atoms: _95  and  _97
REMARK   41  A    between atoms: _97  and  _98
REMARK   42  A    between atoms: _97  and  _100
REMARK   43  A    between atoms: _100  and  _101
REMARK   44  A    between atoms: _101  and  _102
REMARK   45  A    between atoms: _102  and  _103
REMARK   46  A    between atoms: _103  and  _104
REMARK   47  A    between atoms: _108  and  _110
REMARK   48  A    between atoms: _110  and  _111
REMARK   49  A    between atoms: _110  and  _113
REMARK   50  A    between atoms: _113  and  _114
REMARK   51  A    between atoms: _116  and  _118
REMARK   52  A    between atoms: _118  and  _119
REMARK   53  A    between atoms: _118  and  _121
REMARK   54  A    between atoms: _121  and  _122
REMARK   55  A    between atoms: _128  and  _130
REMARK   56  A    between atoms: _130  and  _131
REMARK   57  A    between atoms: _130  and  _133
REMARK   58  A    between atoms: _133  and  _134
REMARK   59  A    between atoms: _134  and  _135
REMARK   60  A    between atoms: _135  and  _136
REMARK   61  A    between atoms: _145  and  _147
REMARK   62  A    between atoms: _147  and  _148
REMARK   63  A    between atoms: _147  and  _150
REMARK   64  A    between atoms: _150  and  _151
REMARK   65  A    between atoms: _156  and  _158
REMARK   66  A    between atoms: _158  and  _159
REMARK   67  A    between atoms: _158  and  _161
REMARK   68  A    between atoms: _161  and  _162
REMARK   69  A    between atoms: _162  and  _163
REMARK   70  A    between atoms: _166  and  _168
REMARK   71  A    between atoms: _168  and  _169
REMARK   72  A    between atoms: _168  and  _171
REMARK   73  A    between atoms: _171  and  _172
REMARK   74  A    between atoms: _172  and  _173
REMARK   75  A    between atoms: _176  and  _178
REMARK   76  A    between atoms: _178  and  _179
REMARK   77  A    between atoms: _178  and  _181
REMARK   78  A    between atoms: _181  and  _182
REMARK   79  A    between atoms: _182  and  _183
REMARK   80  A    between atoms: _185  and  _187
REMARK   81  A    between atoms: _187  and  _188
REMARK   82  A    between atoms: _190  and  _192
REMARK   83  A    between atoms: _192  and  _193
REMARK   84  A    between atoms: _192  and  _195
REMARK   85  A    between atoms: _195  and  _196
REMARK   86  A    between atoms: _196  and  _197
REMARK   87  A    between atoms: _197  and  _198
REMARK   88  A    between atoms: _207  and  _209
REMARK   89  A    between atoms: _209  and  _210
REMARK   90  A    between atoms: _209  and  _212
REMARK   91  A    between atoms: _212  and  _213
REMARK   92  A    between atoms: _218  and  _219
REMARK   93  A    between atoms: _221  and  _223
REMARK   94  A    between atoms: _223  and  _224
REMARK   95  A    between atoms: _223  and  _226
REMARK   96  A    between atoms: _226  and  _227
REMARK   97  A    between atoms: _232  and  _234
REMARK   98  A    between atoms: _234  and  _235
REMARK   99  A    between atoms: _234  and  _237
REMARK  100  A    between atoms: _237  and  _238
REMARK  101  A    between atoms: _244  and  _245
REMARK  102  A    between atoms: _250  and  _252
REMARK  103  A    between atoms: _252  and  _253
REMARK  104  A    between atoms: _252  and  _255
REMARK  105  A    between atoms: _255  and  _256
REMARK  106  A    between atoms: _256  and  _257
REMARK  107  A    between atoms: _260  and  _262
REMARK  108  A    between atoms: _262  and  _263
REMARK  109  A    between atoms: _262  and  _265
REMARK  110  A    between atoms: _265  and  _266
REMARK  111  A    between atoms: _272  and  _274
REMARK  112  A    between atoms: _274  and  _275
REMARK  113  A    between atoms: _274  and  _277
REMARK  114  A    between atoms: _277  and  _278
REMARK  115  A    between atoms: _281  and  _283
REMARK  116  A    between atoms: _283  and  _284
REMARK  117  A    between atoms: _283  and  _286
REMARK  118  A    between atoms: _286  and  _287
REMARK  119  A    between atoms: _287  and  _288
REMARK  120  A    between atoms: _290  and  _292
REMARK  121  A    between atoms: _292  and  _293
REMARK  122  A    between atoms: _292  and  _295
REMARK  123  A    between atoms: _295  and  _296
REMARK  124  A    between atoms: _299  and  _301
REMARK  125  A    between atoms: _301  and  _302
REMARK  126  A    between atoms: _301  and  _304
REMARK  127  A    between atoms: _304  and  _305
REMARK  128  A    between atoms: _305  and  _306
REMARK  129  A    between atoms: _309  and  _311
REMARK  130  A    between atoms: _311  and  _312
REMARK  131  A    between atoms: _311  and  _314
REMARK  132  A    between atoms: _314  and  _315
REMARK  133  A    between atoms: _325  and  _327
REMARK  134  A    between atoms: _327  and  _328
REMARK  135  A    between atoms: _327  and  _330
REMARK  136  A    between atoms: _330  and  _331
REMARK  137  A    between atoms: _336  and  _337
REMARK  138  A    between atoms: _339  and  _341
REMARK  139  A    between atoms: _341  and  _342
REMARK  140  A    between atoms: _341  and  _344
REMARK  141  A    between atoms: _344  and  _345
REMARK  142  A    between atoms: _348  and  _350
REMARK  143  A    between atoms: _350  and  _351
REMARK  144  A    between atoms: _350  and  _353
REMARK  145  A    between atoms: _353  and  _354
REMARK  146  A    between atoms: _356  and  _358
REMARK  147  A    between atoms: _358  and  _359
REMARK  148  A    between atoms: _358  and  _361
REMARK  149  A    between atoms: _361  and  _362
REMARK  150  A    between atoms: _365  and  _367
REMARK  151  A    between atoms: _367  and  _368
REMARK  152  A    between atoms: _371  and  _373
REMARK  153  A    between atoms: _373  and  _374
REMARK  154  A    between atoms: _373  and  _376
REMARK  155  A    between atoms: _376  and  _377
REMARK  156  A    between atoms: _377  and  _378
REMARK  157  A    between atoms: _381  and  _383
REMARK  158  A    between atoms: _383  and  _384
REMARK  159  A    between atoms: _383  and  _386
REMARK  160  A    between atoms: _386  and  _387
REMARK  161  A    between atoms: _387  and  _388
REMARK  162  A    between atoms: _388  and  _389
REMARK  163  A    between atoms: _398  and  _400
REMARK  164  A    between atoms: _400  and  _401
REMARK  165  A    between atoms: _400  and  _403
REMARK  166  A    between atoms: _403  and  _404
REMARK  167  A    between atoms: _410  and  _412
REMARK  168  A    between atoms: _412  and  _413
REMARK  169  A    between atoms: _412  and  _415
REMARK  170  A    between atoms: _415  and  _416
REMARK  171  A    between atoms: _416  and  _417
REMARK  172  A    between atoms: _420  and  _422
REMARK  173  A    between atoms: _422  and  _423
REMARK  174  A    between atoms: _422  and  _425
REMARK  175  A    between atoms: _428  and  _430
REMARK  176  A    between atoms: _430  and  _431
REMARK  177  A    between atoms: _430  and  _433
REMARK  178  A    between atoms: _433  and  _434
REMARK  179  A    between atoms: _439  and  _440
REMARK  180  A    between atoms: _442  and  _444
REMARK  181  A    between atoms: _444  and  _445
REMARK  182  A    between atoms: _444  and  _447
REMARK  183  A    between atoms: _447  and  _448
REMARK  184  A    between atoms: _451  and  _453
REMARK  185  A    between atoms: _453  and  _454
REMARK  186  A    between atoms: _453  and  _456
REMARK  187  A    between atoms: _456  and  _457
REMARK  188  A    between atoms: _457  and  _458
REMARK  189  A    between atoms: _461  and  _463
REMARK  190  A    between atoms: _463  and  _464
REMARK  191  A    between atoms: _463  and  _466
REMARK  192  A    between atoms: _466  and  _467
REMARK  193  A    between atoms: _470  and  _472
REMARK  194  A    between atoms: _472  and  _473
REMARK  195  A    between atoms: _476  and  _478
REMARK  196  A    between atoms: _478  and  _479
REMARK  197  A    between atoms: _478  and  _481
REMARK  198  A    between atoms: _481  and  _482
REMARK  199  A    between atoms: _487  and  _489
REMARK  200  A    between atoms: _489  and  _490
REMARK  201  A    between atoms: _492  and  _494
REMARK  202  A    between atoms: _494  and  _495
REMARK  203  A    between atoms: _494  and  _497
REMARK  204  A    between atoms: _497  and  _498
REMARK  205  A    between atoms: _504  and  _506
REMARK  206  A    between atoms: _506  and  _507
REMARK  207  A    between atoms: _506  and  _509
REMARK  208  A    between atoms: _509  and  _510
REMARK  209  A    between atoms: _515  and  _517
REMARK  210  A    between atoms: _517  and  _518
REMARK  211  A    between atoms: _517  and  _520
REMARK  212  A    between atoms: _520  and  _521
REMARK  213  A    between atoms: _521  and  _522
REMARK  214  A    between atoms: _525  and  _527
REMARK  215  A    between atoms: _527  and  _528
REMARK  216  A    between atoms: _527  and  _530
REMARK  217  A    between atoms: _530  and  _531
REMARK  218  A    between atoms: _534  and  _536
REMARK  219  A    between atoms: _536  and  _537
REMARK  220  A    between atoms: _536  and  _539
REMARK  221  A    between atoms: _541  and  _543
REMARK  222  A    between atoms: _543  and  _544
REMARK  223  A    between atoms: _543  and  _546
REMARK  224  A    between atoms: _546  and  _547
REMARK  225  A    between atoms: _549  and  _551
REMARK  226  A    between atoms: _551  and  _552
REMARK  227  A    between atoms: _554  and  _556
REMARK  228  A    between atoms: _556  and  _557
REMARK  229  A    between atoms: _556  and  _559
REMARK  230  A    between atoms: _562  and  _564
REMARK  231  A    between atoms: _564  and  _565
REMARK  232  A    between atoms: _568  and  _570
REMARK  233  A    between atoms: _570  and  _571
REMARK  234  A    between atoms: _570  and  _573
REMARK  235  A    between atoms: _573  and  _574
REMARK  236  A    between atoms: _577  and  _579
REMARK  237  A    between atoms: _579  and  _580
REMARK  238  A    between atoms: _582  and  _584
REMARK  239  A    between atoms: _584  and  _585
REMARK  240  A    between atoms: _584  and  _587
REMARK  241  A    between atoms: _590  and  _592
REMARK  242  A    between atoms: _592  and  _593
REMARK  243  A    between atoms: _592  and  _595
REMARK  244  A    between atoms: _595  and  _596
REMARK  245  A    between atoms: _599  and  _601
REMARK  246  A    between atoms: _601  and  _602
REMARK  247  A    between atoms: _601  and  _604
REMARK  248  A    between atoms: _604  and  _605
REMARK  249  A    between atoms: _605  and  _606
REMARK  250  A    between atoms: _606  and  _607
REMARK  251  A    between atoms: _616  and  _618
REMARK  252  A    between atoms: _618  and  _619
REMARK  253  A    between atoms: _618  and  _621
REMARK  254  A    between atoms: _621  and  _622
REMARK  255  A    between atoms: _625  and  _627
REMARK  256  A    between atoms: _627  and  _628
REMARK  257  A    between atoms: _627  and  _630
REMARK  258  A    between atoms: _630  and  _631
REMARK  259  A    between atoms: _634  and  _636
REMARK  260  A    between atoms: _636  and  _637
REMARK  261  A    between atoms: _636  and  _639
REMARK  262  A    between atoms: _639  and  _640
REMARK                            x       y       z     vdW  Elec       q    Type
REMARK                         _______ _______ _______ _____ _____    ______ ____
ROOT
ATOM      1  CA  PHE A   3      -3.796   6.270   4.224  0.00  0.00    +0.153 C 
ENDROOT
BRANCH   1   4
ATOM      2  C   ARG A   2      -6.012   5.455   4.775  0.00  0.00    +0.241 C 
ATOM      3  O   ARG A   2      -6.444   6.598   4.954  0.00  0.00    -0.273 OA
ATOM      4  N   PHE A   3      -4.756   5.199   4.428  0.00  0.00    -0.297 N 
ATOM      5  H   PHE A   3      -4.454   4.212   4.300  0.00  0.00    +0.150 HD
BRANCH   2   6
ATOM      6  CA  ARG A   2      -6.917   4.244   4.929  0.00  0.00    +0.149 C 
BRANCH   6   9
ATOM      7  C   GLU A   1      -8.194   3.634   6.913  0.00  0.00    +0.238 C 
ATOM      8  O   GLU A   1      -7.621   2.553   7.052  0.00  0.00    -0.274 OA
ATOM      9  N   ARG A   2      -7.921   4.491   5.942  0.00  0.00    -0.297 N 
ATOM     10  H   ARG A   2      -8.453   5.384   5.905  0.00  0.00    +0.150 HD
BRANCH   7  11
ATOM     11  CA  GLU A   1      -9.287   4.093   7.864  0.00  0.00    +0.145 C 
BRANCH  11  12
ATOM     12  N   GLU A   1     -10.590   4.099   7.199  0.00  0.00    -0.238 NA
ATOM     13  H   GLU A   1     -11.233   3.294   7.337  0.00  0.00    +0.142 HD
ENDBRANCH  11  12
BRANCH  11  14
ATOM     14  CB  GLU A   1      -9.356   3.211   9.108  0.00  0.00    +0.038 C 
BRANCH  14  15
ATOM     15  CG  GLU A   1     -10.487   3.667  10.040  0.00  0.00    +0.116 C 
BRANCH  15  16
ATOM     16  CD  GLU A   1     -10.642   2.812  11.278  0.00  0.00    +0.365 C 
ATOM     17  OE2 GLU A   1     -10.869   3.386  12.370  0.00  0.00    -0.246 OA
ATOM     18  OE1 GLU A   1     -10.561   1.572  11.165  0.00  0.00    -0.246 OA
ENDBRANCH  15  16
ENDBRANCH  14  15
ENDBRANCH  11  14
ENDBRANCH   7  11
ENDBRANCH   6   9
BRANCH   6  19
ATOM     19  CB  ARG A   2      -7.586   3.958   3.585  0.00  0.00    +0.033 C 
BRANCH  19  20
ATOM     20  CG  ARG A   2      -6.619   3.911   2.414  0.00  0.00    +0.045 C 
BRANCH  20  21
ATOM     21  CD  ARG A   2      -7.360   3.881   1.084  0.00  0.00    +0.174 C 
BRANCH  21  22
ATOM     22  NE  ARG A   2      -6.439   3.960  -0.044  0.00  0.00    -0.265 N 
ATOM     23  HE  ARG A   2      -5.419   3.907   0.154  0.00  0.00    +0.259 HD
ATOM     24  CZ  ARG A   2      -6.821   4.095  -1.308  0.00  0.00    +0.342 C 
ATOM     25  NH2 ARG A   2      -8.114   4.172  -1.604  0.00  0.00    -0.292 N 
ATOM     26 HH21 ARG A   2      -8.825   4.126  -0.846  0.00  0.00    +0.255 HD
ATOM     27 HH22 ARG A   2      -8.415   4.278  -2.594  0.00  0.00    +0.255 HD
ATOM     28  NH1 ARG A   2      -5.914   4.151  -2.276  0.00  0.00    -0.292 N 
ATOM     29 HH11 ARG A   2      -4.902   4.089  -2.045  0.00  0.00    +0.255 HD
ATOM     30 HH12 ARG A   2      -6.216   4.257  -3.266  0.00  0.00    +0.255 HD
ENDBRANCH  21  22
ENDBRANCH  20  21
ENDBRANCH  19  20
ENDBRANCH   6  19
ENDBRANCH   2   6
ENDBRANCH   1   4
BRANCH   1  31
ATOM     31  C   PHE A   3      -2.848   5.941   3.083  0.00  0.00    +0.241 C 
ATOM     32  O   PHE A   3      -2.637   4.769   2.753  0.00  0.00    -0.273 OA
ATOM     33  N   GLU A   4      -2.291   6.982   2.477  0.00  0.00    -0.297 N 
ATOM     34  H   GLU A   4      -2.582   7.941   2.755  0.00  0.00    +0.150 HD
BRANCH  33  35
ATOM     35  CA  GLU A   4      -1.286   6.825   1.436  0.00  0.00    +0.149 C 
BRANCH  35  36
ATOM     36  C   GLU A   4      -0.165   7.756   1.877  0.00  0.00    +0.241 C 
ATOM     37  O   GLU A   4      -0.406   8.673   2.673  0.00  0.00    -0.273 OA
ATOM     38  N   VAL A   5       1.056   7.518   1.408  0.00  0.00    -0.297 N 
ATOM     39  H   VAL A   5       1.227   6.704   0.784  0.00  0.00    +0.150 HD
BRANCH  38  40
ATOM     40  CA  VAL A   5       2.159   8.409   1.775  0.00  0.00    +0.149 C 
BRANCH  40  41
ATOM     41  C   VAL A   5       2.879   8.815   0.497  0.00  0.00    +0.241 C 
ATOM     42  N   TYR A   6       3.164  10.108   0.385  0.00  0.00    -0.298 N 
ATOM     43  H   TYR A   6       2.912  10.744   1.168  0.00  0.00    +0.150 HD
ATOM     44  O   VAL A   5       3.138   7.989  -0.379  0.00  0.00    -0.273 OA
BRANCH  42  45
ATOM     45  CA  TYR A   6       3.817  10.671  -0.793  0.00  0.00    +0.141 C 
BRANCH  45  46
ATOM     46  C   TYR A   6       5.085  11.420  -0.424  0.00  0.00    +0.227 C 
ATOM     47  O   TYR A   6       5.174  12.019   0.644  0.00  0.00    -0.286 OA
ENDBRANCH  45  46
BRANCH  45  48
ATOM     48  CB  TYR A   6       2.880  11.663  -1.510  0.00  0.00    +0.054 C 
BRANCH  48  49
ATOM     49  CG  TYR A   6       1.617  11.054  -2.085  0.00  0.00    -0.020 A 
ATOM     50  CD2 TYR A   6       0.532  10.706  -1.269  0.00  0.00    -0.001 A 
ATOM     51  CE2 TYR A   6      -0.628  10.126  -1.821  0.00  0.00    +0.036 A 
ATOM     52  CZ  TYR A   6      -0.681   9.900  -3.197  0.00  0.00    +0.134 A 
ATOM     53  CE1 TYR A   6       0.380  10.241  -4.008  0.00  0.00    +0.036 A 
ATOM     54  CD1 TYR A   6       1.517  10.814  -3.452  0.00  0.00    -0.001 A 
BRANCH  52  55
ATOM     55  OH  TYR A   6      -1.775   9.318  -3.788  0.00  0.00    -0.506 OA
ATOM     56  HH  TYR A   6      -2.458   9.126  -3.098  0.00  0.00    +0.292 HD
ENDBRANCH  52  55
ENDBRANCH  48  49
ENDBRANCH  45  48
ENDBRANCH  42  45
ENDBRANCH  40  41
BRANCH  40  57
ATOM     57  CB  VAL A   5       3.125   7.755   2.831  0.00  0.00    +0.027 C 
ATOM     58  CG2 VAL A   5       4.303   8.690   3.128  0.00  0.00    +0.002 C 
ATOM     59  CG1 VAL A   5       3.626   6.439   2.351  0.00  0.00    +0.002 C 
ENDBRANCH  40  57
ENDBRANCH  38  40
ENDBRANCH  35  36
BRANCH  35  60
ATOM     60  CB  GLU A   4      -1.806   7.265   0.078  0.00  0.00    +0.041 C 
BRANCH  60  61
ATOM     61  CG  GLU A   4      -2.992   6.461  -0.411  0.00  0.00    +0.116 C 
BRANCH  61  62
ATOM     62  CD  GLU A   4      -3.281   6.703  -1.876  0.00  0.00    +0.365 C 
ATOM     63  OE2 GLU A   4      -3.186   7.873  -2.314  0.00  0.00    -0.246 OA
ATOM     64  OE1 GLU A   4      -3.611   5.725  -2.583  0.00  0.00    -0.246 OA
ENDBRANCH  61  62
ENDBRANCH  60  61
ENDBRANCH  35  60
ENDBRANCH  33  35
ENDBRANCH   1  31
BRANCH   1  65
ATOM     65  CB  PHE A   3      -2.975   6.470   5.493  0.00  0.00    +0.055 C 
BRANCH  65  66
ATOM     66  CG  PHE A   3      -2.050   5.313   5.807  0.00  0.00    -0.020 A 
ATOM     67  CD2 PHE A   3      -2.432   4.320   6.712  0.00  0.00    -0.004 A 
ATOM     68  CE2 PHE A   3      -1.556   3.265   7.044  0.00  0.00    -0.000 A 
ATOM     69  CZ  PHE A   3      -0.288   3.206   6.458  0.00  0.00    -0.000 A 
ATOM     70  CE1 PHE A   3       0.096   4.182   5.553  0.00  0.00    -0.000 A 
ATOM     71  CD1 PHE A   3      -0.790   5.236   5.228  0.00  0.00    -0.004 A 
ENDBRANCH  65  66
ENDBRANCH   1  65
TORSDOF 28
REMARK  Name = ../refined-set-2016/3a5y/3a5y_pocket.pdb
REMARK  262 active torsions:
REMARK  status: ('A' for Active; 'I' for Inactive)
REMARK    1  A    between atoms: _1  and  _3
REMARK    2  A    between atoms: _3  and  _4
REMARK    3  A    between atoms: _3  and  _6
REMARK    4  A    between atoms: _9  and  _11
REMARK    5  A    between atoms: _11  and  _12
REMARK    6  A    between atoms: _11  and  _14
REMARK    7  A    between atoms: _14  and  _15
REMARK    8  A    between atoms: _18  and  _20
REMARK    9  A    between atoms: _20  and  _21
REMARK   10  A    between atoms: _20  and  _23
REMARK   11  A    between atoms: _23  and  _24
REMARK   12  A    between atoms: _29  and  _31
REMARK   13  A    between atoms: _31  and  _32
REMARK   14  A    between atoms: _31  and  _34
REMARK   15  A    between atoms: _34  and  _35
REMARK   16  A    between atoms: _38  and  _40
REMARK   17  A    between atoms: _40  and  _41
REMARK   18  A    between atoms: _40  and  _43
REMARK   19  A    between atoms: _43  and  _44
REMARK   20  A    between atoms: _47  and  _49
REMARK   21  A    between atoms: _49  and  _50
REMARK   22  A    between atoms: _49  and  _52
REMARK   23  A    between atoms: _52  and  _53
REMARK   24  A    between atoms: _56  and  _57
REMARK   25  A    between atoms: _62  and  _64
REMARK   26  A    between atoms: _64  and  _65
REMARK   27  A    between atoms: _64  and  _67
REMARK   28  A    between atoms: _67  and  _68
REMARK   29  A    between atoms: _68  and  _69
REMARK   30  A    between atoms: _72  and  _74
REMARK   31  A    between atoms: _74  and  _75
REMARK   32  A    between atoms: _74  and  _77
REMARK   33  A    between atoms: _77  and  _78
REMARK   34  A    between atoms: _83  and  _84
REMARK   35  A    between atoms: _86  and  _88
REMARK   36  A    between atoms: _88  and  _89
REMARK   37  A    between atoms: _88  and  _91
REMARK   38  A    between atoms: _91  and  _92
REMARK   39  A    between atoms: _92  and  _93
REMARK   40  A    between atoms: _95  and  _97
REMARK   41  A    between atoms: _97  and  _98
REMARK   42  A    between atoms: _97  and  _100
REMARK   43  A    between atoms: _100  and  _101
REMARK   44  A    between atoms: _101  and  _102
REMARK   45  A    between atoms: _102  and  _103
REMARK   46  A    between atoms: _103  and  _104
REMARK   47  A    between atoms: _108  and  _110
REMARK   48  A    between atoms: _110  and  _111
REMARK   49  A    between atoms: _110  and  _113
REMARK   50  A    between atoms: _113  and  _114
REMARK   51  A    between atoms: _116  and  _118
REMARK   52  A    between atoms: _118  and  _119
REMARK   53  A    between atoms: _118  and  _121
REMARK   54  A    between atoms: _121  and  _122
REMARK   55  A    between atoms: _128  and  _130
REMARK   56  A    between atoms: _130  and  _131
REMARK   57  A    between atoms: _130  and  _133
REMARK   58  A    between atoms: _133  and  _134
REMARK   59  A    between atoms: _134  and  _135
REMARK   60  A    between atoms: _135  and  _136
REMARK   61  A    between atoms: _145  and  _147
REMARK   62  A    between atoms: _147  and  _148
REMARK   63  A    between atoms: _147  and  _150
REMARK   64  A    between atoms: _150  and  _151
REMARK   65  A    between atoms: _156  and  _158
REMARK   66  A    between atoms: _158  and  _159
REMARK   67  A    between atoms: _158  and  _161
REMARK   68  A    between atoms: _161  and  _162
REMARK   69  A    between atoms: _162  and  _163
REMARK   70  A    between atoms: _166  and  _168
REMARK   71  A    between atoms: _168  and  _169
REMARK   72  A    between atoms: _168  and  _171
REMARK   73  A    between atoms: _171  and  _172
REMARK   74  A    between atoms: _172  and  _173
REMARK   75  A    between atoms: _176  and  _178
REMARK   76  A    between atoms: _178  and  _179
REMARK   77  A    between atoms: _178  and  _181
REMARK   78  A    between atoms: _181  and  _182
REMARK   79  A    between atoms: _182  and  _183
REMARK   80  A    between atoms: _185  and  _187
REMARK   81  A    between atoms: _187  and  _188
REMARK   82  A    between atoms: _190  and  _192
REMARK   83  A    between atoms: _192  and  _193
REMARK   84  A    between atoms: _192  and  _195
REMARK   85  A    between atoms: _195  and  _196
REMARK   86  A    between atoms: _196  and  _197
REMARK   87  A    between atoms: _197  and  _198
REMARK   88  A    between atoms: _207  and  _209
REMARK   89  A    between atoms: _209  and  _210
REMARK   90  A    between atoms: _209  and  _212
REMARK   91  A    between atoms: _212  and  _213
REMARK   92  A    between atoms: _218  and  _219
REMARK   93  A    between atoms: _221  and  _223
REMARK   94  A    between atoms: _223  and  _224
REMARK   95  A    between atoms: _223  and  _226
REMARK   96  A    between atoms: _226  and  _227
REMARK   97  A    between atoms: _232  and  _234
REMARK   98  A    between atoms: _234  and  _235
REMARK   99  A    between atoms: _234  and  _237
REMARK  100  A    between atoms: _237  and  _238
REMARK  101  A    between atoms: _244  and  _245
REMARK  102  A    between atoms: _250  and  _252
REMARK  103  A    between atoms: _252  and  _253
REMARK  104  A    between atoms: _252  and  _255
REMARK  105  A    between atoms: _255  and  _256
REMARK  106  A    between atoms: _256  and  _257
REMARK  107  A    between atoms: _260  and  _262
REMARK  108  A    between atoms: _262  and  _263
REMARK  109  A    between atoms: _262  and  _265
REMARK  110  A    between atoms: _265  and  _266
REMARK  111  A    between atoms: _272  and  _274
REMARK  112  A    between atoms: _274  and  _275
REMARK  113  A    between atoms: _274  and  _277
REMARK  114  A    between atoms: _277  and  _278
REMARK  115  A    between atoms: _281  and  _283
REMARK  116  A    between atoms: _283  and  _284
REMARK  117  A    between atoms: _283  and  _286
REMARK  118  A    between atoms: _286  and  _287
REMARK  119  A    between atoms: _287  and  _288
REMARK  120  A    between atoms: _290  and  _292
REMARK  121  A    between atoms: _292  and  _293
REMARK  122  A    between atoms: _292  and  _295
REMARK  123  A    between atoms: _295  and  _296
REMARK  124  A    between atoms: _299  and  _301
REMARK  125  A    between atoms: _301  and  _302
REMARK  126  A    between atoms: _301  and  _304
REMARK  127  A    between atoms: _304  and  _305
REMARK  128  A    between atoms: _305  and  _306
REMARK  129  A    between atoms: _309  and  _311
REMARK  130  A    between atoms: _311  and  _312
REMARK  131  A    between atoms: _311  and  _314
REMARK  132  A    between atoms: _314  and  _315
REMARK  133  A    between atoms: _325  and  _327
REMARK  134  A    between atoms: _327  and  _328
REMARK  135  A    between atoms: _327  and  _330
REMARK  136  A    between atoms: _330  and  _331
REMARK  137  A    between atoms: _336  and  _337
REMARK  138  A    between atoms: _339  and  _341
REMARK  139  A    between atoms: _341  and  _342
REMARK  140  A    between atoms: _341  and  _344
REMARK  141  A    between atoms: _344  and  _345
REMARK  142  A    between atoms: _348  and  _350
REMARK  143  A    between atoms: _350  and  _351
REMARK  144  A    between atoms: _350  and  _353
REMARK  145  A    between atoms: _353  and  _354
REMARK  146  A    between atoms: _356  and  _358
REMARK  147  A    between atoms: _358  and  _359
REMARK  148  A    between atoms: _358  and  _361
REMARK  149  A    between atoms: _361  and  _362
REMARK  150  A    between atoms: _365  and  _367
REMARK  151  A    between atoms: _367  and  _368
REMARK  152  A    between atoms: _371  and  _373
REMARK  153  A    between atoms: _373  and  _374
REMARK  154  A    between atoms: _373  and  _376
REMARK  155  A    between atoms: _376  and  _377
REMARK  156  A    between atoms: _377  and  _378
REMARK  157  A    between atoms: _381  and  _383
REMARK  158  A    between atoms: _383  and  _384
REMARK  159  A    between atoms: _383  and  _386
REMARK  160  A    between atoms: _386  and  _387
REMARK  161  A    between atoms: _387  and  _388
REMARK  162  A    between atoms: _388  and  _389
REMARK  163  A    between atoms: _398  and  _400
REMARK  164  A    between atoms: _400  and  _401
REMARK  165  A    between atoms: _400  and  _403
REMARK  166  A    between atoms: _403  and  _404
REMARK  167  A    between atoms: _410  and  _412
REMARK  168  A    between atoms: _412  and  _413
REMARK  169  A    between atoms: _412  and  _415
REMARK  170  A    between atoms: _415  and  _416
REMARK  171  A    between atoms: _416  and  _417
REMARK  172  A    between atoms: _420  and  _422
REMARK  173  A    between atoms: _422  and  _423
REMARK  174  A    between atoms: _422  and  _425
REMARK  175  A    between atoms: _428  and  _430
REMARK  176  A    between atoms: _430  and  _431
REMARK  177  A    between atoms: _430  and  _433
REMARK  178  A    between atoms: _433  and  _434
REMARK  179  A    between atoms: _439  and  _440
REMARK  180  A    between atoms: _442  and  _444
REMARK  181  A    between atoms: _444  and  _445
REMARK  182  A    between atoms: _444  and  _447
REMARK  183  A    between atoms: _447  and  _448
REMARK  184  A    between atoms: _451  and  _453
REMARK  185  A    between atoms: _453  and  _454
REMARK  186  A    between atoms: _453  and  _456
REMARK  187  A    between atoms: _456  and  _457
REMARK  188  A    between atoms: _457  and  _458
REMARK  189  A    between atoms: _461  and  _463
REMARK  190  A    between atoms: _463  and  _464
REMARK  191  A    between atoms: _463  and  _466
REMARK  192  A    between atoms: _466  and  _467
REMARK  193  A    between atoms: _470  and  _472
REMARK  194  A    between atoms: _472  and  _473
REMARK  195  A    between atoms: _476  and  _478
REMARK  196  A    between atoms: _478  and  _479
REMARK  197  A    between atoms: _478  and  _481
REMARK  198  A    between atoms: _481  and  _482
REMARK  199  A    between atoms: _487  and  _489
REMARK  200  A    between atoms: _489  and  _490
REMARK  201  A    between atoms: _492  and  _494
REMARK  202  A    between atoms: _494  and  _495
REMARK  203  A    between atoms: _494  and  _497
REMARK  204  A    between atoms: _497  and  _498
REMARK  205  A    between atoms: _504  and  _506
REMARK  206  A    between atoms: _506  and  _507
REMARK  207  A    between atoms: _506  and  _509
REMARK  208  A    between atoms: _509  and  _510
REMARK  209  A    between atoms: _515  and  _517
REMARK  210  A    between atoms: _517  and  _518
REMARK  211  A    between atoms: _517  and  _520
REMARK  212  A    between atoms: _520  and  _521
REMARK  213  A    between atoms: _521  and  _522
REMARK  214  A    between atoms: _525  and  _527
REMARK  215  A    between atoms: _527  and  _528
REMARK  216  A    between atoms: _527  and  _530
REMARK  217  A    between atoms: _530  and  _531
REMARK  218  A    between atoms: _534  and  _536
REMARK  219  A    between atoms: _536  and  _537
REMARK  220  A    between atoms: _536  and  _539
REMARK  221  A    between atoms: _541  and  _543
REMARK  222  A    between atoms: _543  and  _544
REMARK  223  A    between atoms: _543  and  _546
REMARK  224  A    between atoms: _546  and  _547
REMARK  225  A    between atoms: _549  and  _551
REMARK  226  A    between atoms: _551  and  _552
REMARK  227  A    between atoms: _554  and  _556
REMARK  228  A    between atoms: _556  and  _557
REMARK  229  A    between atoms: _556  and  _559
REMARK  230  A    between atoms: _562  and  _564
REMARK  231  A    between atoms: _564  and  _565
REMARK  232  A    between atoms: _568  and  _570
REMARK  233  A    between atoms: _570  and  _571
REMARK  234  A    between atoms: _570  and  _573
REMARK  235  A    between atoms: _573  and  _574
REMARK  236  A    between atoms: _577  and  _579
REMARK  237  A    between atoms: _579  and  _580
REMARK  238  A    between atoms: _582  and  _584
REMARK  239  A    between atoms: _584  and  _585
REMARK  240  A    between atoms: _584  and  _587
REMARK  241  A    between atoms: _590  and  _592
REMARK  242  A    between atoms: _592  and  _593
REMARK  243  A    between atoms: _592  and  _595
REMARK  244  A    between atoms: _595  and  _596
REMARK  245  A    between atoms: _599  and  _601
REMARK  246  A    between atoms: _601  and  _602
REMARK  247  A    between atoms: _601  and  _604
REMARK  248  A    between atoms: _604  and  _605
REMARK  249  A    between atoms: _605  and  _606
REMARK  250  A    between atoms: _606  and  _607
REMARK  251  A    between atoms: _616  and  _618
REMARK  252  A    between atoms: _618  and  _619
REMARK  253  A    between atoms: _618  and  _621
REMARK  254  A    between atoms: _621  and  _622
REMARK  255  A    between atoms: _625  and  _627
REMARK  256  A    between atoms: _627  and  _628
REMARK  257  A    between atoms: _627  and  _630
REMARK  258  A    between atoms: _630  and  _631
REMARK  259  A    between atoms: _634  and  _636
REMARK  260  A    between atoms: _636  and  _637
REMARK  261  A    between atoms: _636  and  _639
REMARK  262  A    between atoms: _639  and  _640
REMARK                            x       y       z     vdW  Elec       q    Type
REMARK                         _______ _______ _______ _____ _____    ______ ____
ROOT
ATOM      1  C   ASN A   5      -1.304   1.607   1.909  0.00  0.00    +0.241 C 
ATOM      2  N   GLY A   6      -1.937   2.058   2.990  0.00  0.00    -0.295 N 
ATOM      3  H   GLY A   6      -2.219   3.058   3.042  0.00  0.00    +0.150 HD
ATOM      4  O   ASN A   5      -0.968   0.432   1.781  0.00  0.00    -0.273 OA
ENDROOT
BRANCH   1   5
ATOM      5  CA  ASN A   5      -0.985   2.621   0.815  0.00  0.00    +0.158 C 
BRANCH   5   7
ATOM      6  C   ALA A   4       1.182   3.636   0.210  0.00  0.00    +0.241 C 
ATOM      7  N   ASN A   5       0.472   2.588   0.619  0.00  0.00    -0.297 N 
ATOM      8  H   ASN A   5       0.974   1.698   0.810  0.00  0.00    +0.150 HD
ATOM      9  O   ALA A   4       0.685   4.746  -0.013  0.00  0.00    -0.273 OA
BRANCH   6  10
ATOM     10  CA  ALA A   4       2.680   3.390   0.029  0.00  0.00    +0.149 C 
ATOM     11  CB  ALA A   4       3.366   3.113   1.401  0.00  0.00    +0.031 C 
BRANCH  10  13
ATOM     12  C   LEU A   3       4.490   4.227  -1.332  0.00  0.00    +0.241 C 
ATOM     13  N   ALA A   4       3.377   4.476  -0.647  0.00  0.00    -0.297 N 
ATOM     14  H   ALA A   4       3.005   5.446  -0.594  0.00  0.00    +0.150 HD
ATOM     15  O   LEU A   3       4.943   3.095  -1.459  0.00  0.00    -0.273 OA
BRANCH  12  16
ATOM     16  CA  LEU A   3       5.223   5.406  -1.970  0.00  0.00    +0.149 C 
BRANCH  16  18
ATOM     17  C   GLU A   2       4.104   6.533  -3.806  0.00  0.00    +0.241 C 
ATOM     18  N   LEU A   3       4.433   6.502  -2.521  0.00  0.00    -0.297 N 
ATOM     19  H   LEU A   3       4.122   7.273  -1.895  0.00  0.00    +0.150 HD
ATOM     20  O   GLU A   2       4.410   5.632  -4.596  0.00  0.00    -0.273 OA
BRANCH  17  21
ATOM     21  CA  GLU A   2       3.305   7.746  -4.290  0.00  0.00    +0.149 C 
BRANCH  21  24
ATOM     22  C   ILE A   1       5.145   9.247  -4.737  0.00  0.00    +0.238 C 
ATOM     23  O   ILE A   1       5.259   9.509  -3.541  0.00  0.00    -0.274 OA
ATOM     24  N   GLU A   2       4.207   8.429  -5.210  0.00  0.00    -0.297 N 
ATOM     25  H   GLU A   2       4.118   8.277  -6.235  0.00  0.00    +0.150 HD
BRANCH  22  26
ATOM     26  CA  ILE A   1       6.092   9.874  -5.751  0.00  0.00    +0.145 C 
BRANCH  26  27
ATOM     27  CB  ILE A   1       7.451   9.123  -5.659  0.00  0.00    +0.025 C 
ATOM     28  CG2 ILE A   1       7.258   7.638  -5.982  0.00  0.00    +0.002 C 
BRANCH  27  29
ATOM     29  CG1 ILE A   1       8.471   9.759  -6.605  0.00  0.00    +0.002 C 
ATOM     30  CD1 ILE A   1       8.095   9.657  -8.072  0.00  0.00    +0.000 C 
ENDBRANCH  27  29
ENDBRANCH  26  27
BRANCH  26  31
ATOM     31  N   ILE A   1       6.281  11.301  -5.504  0.00  0.00    -0.238 NA
ATOM     32  H   ILE A   1       6.829  11.605  -4.674  0.00  0.00    +0.142 HD
ENDBRANCH  26  31
ENDBRANCH  22  26
ENDBRANCH  21  24
BRANCH  21  33
ATOM     33  CB  GLU A   2       2.039   7.268  -5.004  0.00  0.00    +0.041 C 
BRANCH  33  34
ATOM     34  CG  GLU A   2       1.051   6.611  -4.061  0.00  0.00    +0.116 C 
BRANCH  34  35
ATOM     35  CD  GLU A   2       0.055   5.726  -4.784  0.00  0.00    +0.365 C 
ATOM     36  OE2 GLU A   2      -0.118   4.566  -4.359  0.00  0.00    -0.246 OA
ATOM     37  OE1 GLU A   2      -0.556   6.192  -5.768  0.00  0.00    -0.246 OA
ENDBRANCH  34  35
ENDBRANCH  33  34
ENDBRANCH  21  33
ENDBRANCH  17  21
ENDBRANCH  16  18
BRANCH  16  38
ATOM     38  CB  LEU A   3       6.236   5.949  -0.949  0.00  0.00    +0.029 C 
BRANCH  38  39
ATOM     39  CG  LEU A   3       7.310   6.881  -1.517  0.00  0.00    +0.002 C 
ATOM     40  CD2 LEU A   3       8.142   7.478  -0.372  0.00  0.00    +0.000 C 
ATOM     41  CD1 LEU A   3       8.196   6.093  -2.495  0.00  0.00    +0.000 C 
ENDBRANCH  38  39
ENDBRANCH  16  38
ENDBRANCH  12  16
ENDBRANCH  10  13
ENDBRANCH   6  10
ENDBRANCH   5   7
BRANCH   5  42
ATOM     42  CB  ASN A   5      -1.655   2.248  -0.519  0.00  0.00    +0.114 C 
BRANCH  42  43
ATOM     43  CG  ASN A   5      -3.173   2.209  -0.450  0.00  0.00    +0.222 C 
ATOM     44  OD1 ASN A   5      -3.809   2.955   0.292  0.00  0.00    -0.275 OA
ATOM     45  ND2 ASN A   5      -3.764   1.338  -1.260  0.00  0.00    -0.329 N 
ATOM     46 HD21 ASN A   5      -4.802   1.269  -1.282  0.00  0.00    +0.145 HD
ATOM     47 HD22 ASN A   5      -3.189   0.725  -1.872  0.00  0.00    +0.145 HD
ENDBRANCH  42  43
ENDBRANCH   5  42
ENDBRANCH   1   5
BRANCH   2  48
ATOM     48  CA  GLY A   6      -2.240   1.162   4.104  0.00  0.00    +0.176 C 
BRANCH  48  49
ATOM     49  C   GLY A   6      -3.606   1.362   4.733  0.00  0.00    +0.243 C 
ATOM     50  N   PHE A   7      -4.074   0.372   5.489  0.00  0.00    -0.297 N 
ATOM     51  H   PHE A   7      -3.484  -0.472   5.638  0.00  0.00    +0.150 HD
ATOM     52  O   GLY A   6      -4.223   2.399   4.536  0.00  0.00    -0.273 OA
BRANCH  50  53
ATOM     53  CA  PHE A   7      -5.395   0.436   6.118  0.00  0.00    +0.153 C 
BRANCH  53  54
ATOM     54  C   PHE A   7      -5.441  -0.155   7.518  0.00  0.00    +0.241 C 
ATOM     55  N   HIS A   8      -6.474   0.225   8.273  0.00  0.00    -0.297 N 
ATOM     56  H   HIS A   8      -7.093   0.999   7.957  0.00  0.00    +0.150 HD
ATOM     57  O   PHE A   7      -4.579  -0.947   7.900  0.00  0.00    -0.273 OA
BRANCH  55  58
ATOM     58  CA  HIS A   8      -6.733  -0.443   9.535  0.00  0.00    +0.155 C 
BRANCH  58  59
ATOM     59  C   HIS A   8      -7.642  -1.458   8.821  0.00  0.00    +0.241 C 
ATOM     60  N   GLU A   9      -7.280  -2.730   8.876  0.00  0.00    -0.297 N 
ATOM     61  H   GLU A   9      -6.464  -2.993   9.464  0.00  0.00    +0.150 HD
ATOM     62  O   HIS A   8      -8.652  -1.074   8.217  0.00  0.00    -0.273 OA
BRANCH  60  63
ATOM     63  CA  GLU A   9      -7.984  -3.779   8.141  0.00  0.00    +0.149 C 
BRANCH  63  64
ATOM     64  C   GLU A   9      -9.430  -4.182   8.425  0.00  0.00    +0.241 C 
ATOM     65  O   GLU A   9      -9.824  -4.392   9.573  0.00  0.00    -0.273 OA
ATOM     66  N   LEU A  10     -10.209  -4.321   7.354  0.00  0.00    -0.298 N 
ATOM     67  H   LEU A  10      -9.824  -4.105   6.412  0.00  0.00    +0.150 HD
BRANCH  66  68
ATOM     68  CA  LEU A  10     -11.599  -4.773   7.477  0.00  0.00    +0.137 C 
BRANCH  68  69
ATOM     69  C   LEU A  10     -11.535  -6.264   7.810  0.00  0.00    +0.227 C 
ATOM     70  O   LEU A  10     -10.895  -7.033   7.107  0.00  0.00    -0.286 OA
ENDBRANCH  68  69
BRANCH  68  71
ATOM     71  CB  LEU A  10     -12.352  -4.581   6.160  0.00  0.00    +0.028 C 
BRANCH  71  72
ATOM     72  CG  LEU A  10     -13.704  -5.292   6.034  0.00  0.00    +0.002 C 
ATOM     73  CD2 LEU A  10     -14.676  -4.789   7.108  0.00  0.00    +0.000 C 
ATOM     74  CD1 LEU A  10     -14.255  -5.047   4.651  0.00  0.00    +0.000 C 
ENDBRANCH  71  72
ENDBRANCH  68  71
ENDBRANCH  66  68
ENDBRANCH  63  64
BRANCH  63  75
ATOM     75  CB  GLU A   9      -7.126  -5.040   8.182  0.00  0.00    +0.041 C 
BRANCH  75  76
ATOM     76  CG  GLU A   9      -5.696  -4.828   7.692  0.00  0.00    +0.116 C 
BRANCH  76  77
ATOM     77  CD  GLU A   9      -5.617  -4.443   6.216  0.00  0.00    +0.365 C 
ATOM     78  OE2 GLU A   9      -4.575  -3.905   5.786  0.00  0.00    -0.246 OA
ATOM     79  OE1 GLU A   9      -6.581  -4.692   5.477  0.00  0.00    -0.246 OA
ENDBRANCH  76  77
ENDBRANCH  75  76
ENDBRANCH  63  75
ENDBRANCH  60  63
ENDBRANCH  58  59
BRANCH  58  80
ATOM     80  CB  HIS A   8      -7.579   0.381  10.498  0.00  0.00    +0.076 C 
BRANCH  80  81
ATOM     81  CG  HIS A   8      -7.979  -0.378  11.724  0.00  0.00    +0.082 A 
ATOM     82  ND1 HIS A   8      -9.147  -0.127  12.410  0.00  0.00    -0.227 NA
ATOM     83  CE1 HIS A   8      -9.238  -0.955  13.436  0.00  0.00    +0.199 A 
ATOM     84  NE2 HIS A   8      -8.171  -1.733  13.442  0.00  0.00    -0.221 NA
ATOM     85  CD2 HIS A   8      -7.368  -1.392  12.381  0.00  0.00    +0.115 A 
ENDBRANCH  80  81
ENDBRANCH  58  80
ENDBRANCH  55  58
ENDBRANCH  53  54
BRANCH  53  86
ATOM     86  CB  PHE A   7      -6.449  -0.431   5.381  0.00  0.00    +0.055 C 
BRANCH  86  87
ATOM     87  CG  PHE A   7      -6.286  -0.551   3.882  0.00  0.00    -0.020 A 
ATOM     88  CD2 PHE A   7      -6.462  -1.794   3.270  0.00  0.00    -0.004 A 
ATOM     89  CE2 PHE A   7      -6.449  -1.923   1.878  0.00  0.00    -0.000 A 
ATOM     90  CZ  PHE A   7      -6.253  -0.802   1.085  0.00  0.00    -0.000 A 
ATOM     91  CE1 PHE A   7      -6.069   0.444   1.687  0.00  0.00    -0.000 A 
ATOM     92  CD1 PHE A   7      -6.086   0.562   3.077  0.00  0.00    -0.004 A 
ENDBRANCH  86  87
ENDBRANCH  53  86
ENDBRANCH  50  53
ENDBRANCH  48  49
ENDBRANCH   2  48
TORSDOF 38
REMARK  Name = ../refined-set-2016/3a5y/3a5y_pocket.pdb
REMARK  262 active torsions:
REMARK  status: ('A' for Active; 'I' for Inactive)
REMARK    1  A    between atoms: _1  and  _3
REMARK    2  A    between atoms: _3  and  _4
REMARK    3  A    between atoms: _3  and  _6
REMARK    4  A    between atoms: _9  and  _11
REMARK    5  A    between atoms: _11  and  _12
REMARK    6  A    between atoms: _11  and  _14
REMARK    7  A    between atoms: _14  and  _15
REMARK    8  A    between atoms: _18  and  _20
REMARK    9  A    between atoms: _20  and  _21
REMARK   10  A    between atoms: _20  and  _23
REMARK   11  A    between atoms: _23  and  _24
REMARK   12  A    between atoms: _29  and  _31
REMARK   13  A    between atoms: _31  and  _32
REMARK   14  A    between atoms: _31  and  _34
REMARK   15  A    between atoms: _34  and  _35
REMARK   16  A    between atoms: _38  and  _40
REMARK   17  A    between atoms: _40  and  _41
REMARK   18  A    between atoms: _40  and  _43
REMARK   19  A    between atoms: _43  and  _44
REMARK   20  A    between atoms: _47  and  _49
REMARK   21  A    between atoms: _49  and  _50
REMARK   22  A    between atoms: _49  and  _52
REMARK   23  A    between atoms: _52  and  _53
REMARK   24  A    between atoms: _56  and  _57
REMARK   25  A    between atoms: _62  and  _64
REMARK   26  A    between atoms: _64  and  _65
REMARK   27  A    between atoms: _64  and  _67
REMARK   28  A    between atoms: _67  and  _68
REMARK   29  A    between atoms: _68  and  _69
REMARK   30  A    between atoms: _72  and  _74
REMARK   31  A    between atoms: _74  and  _75
REMARK   32  A    between atoms: _74  and  _77
REMARK   33  A    between atoms: _77  and  _78
REMARK   34  A    between atoms: _83  and  _84
REMARK   35  A    between atoms: _86  and  _88
REMARK   36  A    between atoms: _88  and  _89
REMARK   37  A    between atoms: _88  and  _91
REMARK   38  A    between atoms: _91  and  _92
REMARK   39  A    between atoms: _92  and  _93
REMARK   40  A    between atoms: _95  and  _97
REMARK   41  A    between atoms: _97  and  _98
REMARK   42  A    between atoms: _97  and  _100
REMARK   43  A    between atoms: _100  and  _101
REMARK   44  A    between atoms: _101  and  _102
REMARK   45  A    between atoms: _102  and  _103
REMARK   46  A    between atoms: _103  and  _104
REMARK   47  A    between atoms: _108  and  _110
REMARK   48  A    between atoms: _110  and  _111
REMARK   49  A    between atoms: _110  and  _113
REMARK   50  A    between atoms: _113  and  _114
REMARK   51  A    between atoms: _116  and  _118
REMARK   52  A    between atoms: _118  and  _119
REMARK   53  A    between atoms: _118  and  _121
REMARK   54  A    between atoms: _121  and  _122
REMARK   55  A    between atoms: _128  and  _130
REMARK   56  A    between atoms: _130  and  _131
REMARK   57  A    between atoms: _130  and  _133
REMARK   58  A    between atoms: _133  and  _134
REMARK   59  A    between atoms: _134  and  _135
REMARK   60  A    between atoms: _135  and  _136
REMARK   61  A    between atoms: _145  and  _147
REMARK   62  A    between atoms: _147  and  _148
REMARK   63  A    between atoms: _147  and  _150
REMARK   64  A    between atoms: _150  and  _151
REMARK   65  A    between atoms: _156  and  _158
REMARK   66  A    between atoms: _158  and  _159
REMARK   67  A    between atoms: _158  and  _161
REMARK   68  A    between atoms: _161  and  _162
REMARK   69  A    between atoms: _162  and  _163
REMARK   70  A    between atoms: _166  and  _168
REMARK   71  A    between atoms: _168  and  _169
REMARK   72  A    between atoms: _168  and  _171
REMARK   73  A    between atoms: _171  and  _172
REMARK   74  A    between atoms: _172  and  _173
REMARK   75  A    between atoms: _176  and  _178
REMARK   76  A    between atoms: _178  and  _179
REMARK   77  A    between atoms: _178  and  _181
REMARK   78  A    between atoms: _181  and  _182
REMARK   79  A    between atoms: _182  and  _183
REMARK   80  A    between atoms: _185  and  _187
REMARK   81  A    between atoms: _187  and  _188
REMARK   82  A    between atoms: _190  and  _192
REMARK   83  A    between atoms: _192  and  _193
REMARK   84  A    between atoms: _192  and  _195
REMARK   85  A    between atoms: _195  and  _196
REMARK   86  A    between atoms: _196  and  _197
REMARK   87  A    between atoms: _197  and  _198
REMARK   88  A    between atoms: _207  and  _209
REMARK   89  A    between atoms: _209  and  _210
REMARK   90  A    between atoms: _209  and  _212
REMARK   91  A    between atoms: _212  and  _213
REMARK   92  A    between atoms: _218  and  _219
REMARK   93  A    between atoms: _221  and  _223
REMARK   94  A    between atoms: _223  and  _224
REMARK   95  A    between atoms: _223  and  _226
REMARK   96  A    between atoms: _226  and  _227
REMARK   97  A    between atoms: _232  and  _234
REMARK   98  A    between atoms: _234  and  _235
REMARK   99  A    between atoms: _234  and  _237
REMARK  100  A    between atoms: _237  and  _238
REMARK  101  A    between atoms: _244  and  _245
REMARK  102  A    between atoms: _250  and  _252
REMARK  103  A    between atoms: _252  and  _253
REMARK  104  A    between atoms: _252  and  _255
REMARK  105  A    between atoms: _255  and  _256
REMARK  106  A    between atoms: _256  and  _257
REMARK  107  A    between atoms: _260  and  _262
REMARK  108  A    between atoms: _262  and  _263
REMARK  109  A    between atoms: _262  and  _265
REMARK  110  A    between atoms: _265  and  _266
REMARK  111  A    between atoms: _272  and  _274
REMARK  112  A    between atoms: _274  and  _275
REMARK  113  A    between atoms: _274  and  _277
REMARK  114  A    between atoms: _277  and  _278
REMARK  115  A    between atoms: _281  and  _283
REMARK  116  A    between atoms: _283  and  _284
REMARK  117  A    between atoms: _283  and  _286
REMARK  118  A    between atoms: _286  and  _287
REMARK  119  A    between atoms: _287  and  _288
REMARK  120  A    between atoms: _290  and  _292
REMARK  121  A    between atoms: _292  and  _293
REMARK  122  A    between atoms: _292  and  _295
REMARK  123  A    between atoms: _295  and  _296
REMARK  124  A    between atoms: _299  and  _301
REMARK  125  A    between atoms: _301  and  _302
REMARK  126  A    between atoms: _301  and  _304
REMARK  127  A    between atoms: _304  and  _305
REMARK  128  A    between atoms: _305  and  _306
REMARK  129  A    between atoms: _309  and  _311
REMARK  130  A    between atoms: _311  and  _312
REMARK  131  A    between atoms: _311  and  _314
REMARK  132  A    between atoms: _314  and  _315
REMARK  133  A    between atoms: _325  and  _327
REMARK  134  A    between atoms: _327  and  _328
REMARK  135  A    between atoms: _327  and  _330
REMARK  136  A    between atoms: _330  and  _331
REMARK  137  A    between atoms: _336  and  _337
REMARK  138  A    between atoms: _339  and  _341
REMARK  139  A    between atoms: _341  and  _342
REMARK  140  A    between atoms: _341  and  _344
REMARK  141  A    between atoms: _344  and  _345
REMARK  142  A    between atoms: _348  and  _350
REMARK  143  A    between atoms: _350  and  _351
REMARK  144  A    between atoms: _350  and  _353
REMARK  145  A    between atoms: _353  and  _354
REMARK  146  A    between atoms: _356  and  _358
REMARK  147  A    between atoms: _358  and  _359
REMARK  148  A    between atoms: _358  and  _361
REMARK  149  A    between atoms: _361  and  _362
REMARK  150  A    between atoms: _365  and  _367
REMARK  151  A    between atoms: _367  and  _368
REMARK  152  A    between atoms: _371  and  _373
REMARK  153  A    between atoms: _373  and  _374
REMARK  154  A    between atoms: _373  and  _376
REMARK  155  A    between atoms: _376  and  _377
REMARK  156  A    between atoms: _377  and  _378
REMARK  157  A    between atoms: _381  and  _383
REMARK  158  A    between atoms: _383  and  _384
REMARK  159  A    between atoms: _383  and  _386
REMARK  160  A    between atoms: _386  and  _387
REMARK  161  A    between atoms: _387  and  _388
REMARK  162  A    between atoms: _388  and  _389
REMARK  163  A    between atoms: _398  and  _400
REMARK  164  A    between atoms: _400  and  _401
REMARK  165  A    between atoms: _400  and  _403
REMARK  166  A    between atoms: _403  and  _404
REMARK  167  A    between atoms: _410  and  _412
REMARK  168  A    between atoms: _412  and  _413
REMARK  169  A    between atoms: _412  and  _415
REMARK  170  A    between atoms: _415  and  _416
REMARK  171  A    between atoms: _416  and  _417
REMARK  172  A    between atoms: _420  and  _422
REMARK  173  A    between atoms: _422  and  _423
REMARK  174  A    between atoms: _422  and  _425
REMARK  175  A    between atoms: _428  and  _430
REMARK  176  A    between atoms: _430  and  _431
REMARK  177  A    between atoms: _430  and  _433
REMARK  178  A    between atoms: _433  and  _434
REMARK  179  A    between atoms: _439  and  _440
REMARK  180  A    between atoms: _442  and  _444
REMARK  181  A    between atoms: _444  and  _445
REMARK  182  A    between atoms: _444  and  _447
REMARK  183  A    between atoms: _447  and  _448
REMARK  184  A    between atoms: _451  and  _453
REMARK  185  A    between atoms: _453  and  _454
REMARK  186  A    between atoms: _453  and  _456
REMARK  187  A    between atoms: _456  and  _457
REMARK  188  A    between atoms: _457  and  _458
REMARK  189  A    between atoms: _461  and  _463
REMARK  190  A    between atoms: _463  and  _464
REMARK  191  A    between atoms: _463  and  _466
REMARK  192  A    between atoms: _466  and  _467
REMARK  193  A    between atoms: _470  and  _472
REMARK  194  A    between atoms: _472  and  _473
REMARK  195  A    between atoms: _476  and  _478
REMARK  196  A    between atoms: _478  and  _479
REMARK  197  A    between atoms: _478  and  _481
REMARK  198  A    between atoms: _481  and  _482
REMARK  199  A    between atoms: _487  and  _489
REMARK  200  A    between atoms: _489  and  _490
REMARK  201  A    between atoms: _492  and  _494
REMARK  202  A    between atoms: _494  and  _495
REMARK  203  A    between atoms: _494  and  _497
REMARK  204  A    between atoms: _497  and  _498
REMARK  205  A    between atoms: _504  and  _506
REMARK  206  A    between atoms: _506  and  _507
REMARK  207  A    between atoms: _506  and  _509
REMARK  208  A    between atoms: _509  and  _510
REMARK  209  A    between atoms: _515  and  _517
REMARK  210  A    between atoms: _517  and  _518
REMARK  211  A    between atoms: _517  and  _520
REMARK  212  A    between atoms: _520  and  _521
REMARK  213  A    between atoms: _521  and  _522
REMARK  214  A    between atoms: _525  and  _527
REMARK  215  A    between atoms: _527  and  _528
REMARK  216  A    between atoms: _527  and  _530
REMARK  217  A    between atoms: _530  and  _531
REMARK  218  A    between atoms: _534  and  _536
REMARK  219  A    between atoms: _536  and  _537
REMARK  220  A    between atoms: _536  and  _539
REMARK  221  A    between atoms: _541  and  _543
REMARK  222  A    between atoms: _543  and  _544
REMARK  223  A    between atoms: _543  and  _546
REMARK  224  A    between atoms: _546  and  _547
REMARK  225  A    between atoms: _549  and  _551
REMARK  226  A    between atoms: _551  and  _552
REMARK  227  A    between atoms: _554  and  _556
REMARK  228  A    between atoms: _556  and  _557
REMARK  229  A    between atoms: _556  and  _559
REMARK  230  A    between atoms: _562  and  _564
REMARK  231  A    between atoms: _564  and  _565
REMARK  232  A    between atoms: _568  and  _570
REMARK  233  A    between atoms: _570  and  _571
REMARK  234  A    between atoms: _570  and  _573
REMARK  235  A    between atoms: _573  and  _574
REMARK  236  A    between atoms: _577  and  _579
REMARK  237  A    between atoms: _579  and  _580
REMARK  238  A    between atoms: _582  and  _584
REMARK  239  A    between atoms: _584  and  _585
REMARK  240  A    between atoms: _584  and  _587
REMARK  241  A    between atoms: _590  and  _592
REMARK  242  A    between atoms: _592  and  _593
REMARK  243  A    between atoms: _592  and  _595
REMARK  244  A    between atoms: _595  and  _596
REMARK  245  A    between atoms: _599  and  _601
REMARK  246  A    between atoms: _601  and  _602
REMARK  247  A    between atoms: _601  and  _604
REMARK  248  A    between atoms: _604  and  _605
REMARK  249  A    between atoms: _605  and  _606
REMARK  250  A    between atoms: _606  and  _607
REMARK  251  A    between atoms: _616  and  _618
REMARK  252  A    between atoms: _618  and  _619
REMARK  253  A    between atoms: _618  and  _621
REMARK  254  A    between atoms: _621  and  _622
REMARK  255  A    between atoms: _625  and  _627
REMARK  256  A    between atoms: _627  and  _628
REMARK  257  A    between atoms: _627  and  _630
REMARK  258  A    between atoms: _630  and  _631
REMARK  259  A    between atoms: _634  and  _636
REMARK  260  A    between atoms: _636  and  _637
REMARK  261  A    between atoms: _636  and  _639
REMARK  262  A    between atoms: _639  and  _640
REMARK                            x       y       z     vdW  Elec       q    Type
REMARK                         _______ _______ _______ _____ _____    ______ ____
ROOT
ATOM      1  CA  GLY A   7       6.760   0.222  -3.586  0.00  0.00    +0.176 C 
ENDROOT
BRANCH   1   2
ATOM      2  C   GLY A   7       8.242   0.335  -3.312  0.00  0.00    +0.243 C 
ATOM      3  N   VAL A   8       8.921  -0.807  -3.190  0.00  0.00    -0.297 N 
ATOM      4  H   VAL A   8       8.428  -1.715  -3.308  0.00  0.00    +0.150 HD
ATOM      5  O   GLY A   7       8.770   1.448  -3.212  0.00  0.00    -0.273 OA
BRANCH   3   6
ATOM      6  CA  VAL A   8      10.356  -0.793  -2.891  0.00  0.00    +0.149 C 
BRANCH   6   7
ATOM      7  C   VAL A   8      11.169  -0.140  -4.006  0.00  0.00    +0.241 C 
ATOM      8  O   VAL A   8      12.122   0.588  -3.732  0.00  0.00    -0.273 OA
ATOM      9  N   ASP A   9      10.806  -0.388  -5.263  0.00  0.00    -0.297 N 
ATOM     10  H   ASP A   9       9.998  -1.012  -5.463  0.00  0.00    +0.150 HD
BRANCH   9  11
ATOM     11  CA  ASP A   9      11.556   0.226  -6.363  0.00  0.00    +0.160 C 
BRANCH  11  12
ATOM     12  C   ASP A   9      11.489   1.748  -6.320  0.00  0.00    +0.241 C 
ATOM     13  N   ARG A  10      10.314   2.289  -6.000  0.00  0.00    -0.297 N 
ATOM     14  H   ARG A  10       9.493   1.678  -5.816  0.00  0.00    +0.150 HD
ATOM     15  O   ASP A   9      12.489   2.425  -6.588  0.00  0.00    -0.273 OA
BRANCH  13  16
ATOM     16  CA  ARG A  10      10.180   3.741  -5.908  0.00  0.00    +0.149 C 
BRANCH  16  17
ATOM     17  C   ARG A  10      11.005   4.277  -4.738  0.00  0.00    +0.241 C 
ATOM     18  N   LEU A  11      11.008   3.539  -3.632  0.00  0.00    -0.298 N 
ATOM     19  H   LEU A  11      10.447   2.664  -3.606  0.00  0.00    +0.150 HD
ATOM     20  O   ARG A  10      11.628   5.338  -4.844  0.00  0.00    -0.273 OA
BRANCH  18  21
ATOM     21  CA  LEU A  11      11.777   3.925  -2.455  0.00  0.00    +0.137 C 
BRANCH  21  22
ATOM     22  C   LEU A  11      13.279   3.947  -2.770  0.00  0.00    +0.227 C 
ATOM     23  O   LEU A  11      14.008   4.867  -2.372  0.00  0.00    -0.286 OA
ENDBRANCH  21  22
BRANCH  21  24
ATOM     24  CB  LEU A  11      11.505   2.950  -1.299  0.00  0.00    +0.028 C 
BRANCH  24  25
ATOM     25  CG  LEU A  11      12.282   3.249  -0.005  0.00  0.00    +0.002 C 
ATOM     26  CD2 LEU A  11      12.175   2.075   0.959  0.00  0.00    +0.000 C 
ATOM     27  CD1 LEU A  11      11.720   4.508   0.653  0.00  0.00    +0.000 C 
ENDBRANCH  24  25
ENDBRANCH  21  24
ENDBRANCH  18  21
ENDBRANCH  16  17
BRANCH  16  28
ATOM     28  CB  ARG A  10       8.709   4.142  -5.746  0.00  0.00    +0.033 C 
BRANCH  28  29
ATOM     29  CG  ARG A  10       7.953   4.048  -7.052  0.00  0.00    +0.045 C 
BRANCH  29  30
ATOM     30  CD  ARG A  10       6.480   4.270  -6.858  0.00  0.00    +0.174 C 
BRANCH  30  31
ATOM     31  NE  ARG A  10       5.748   4.040  -8.100  0.00  0.00    -0.265 N 
ATOM     32  CZ  ARG A  10       4.441   4.263  -8.247  0.00  0.00    +0.342 C 
ATOM     33  NH2 ARG A  10       3.718   4.725  -7.234  0.00  0.00    -0.292 N 
ATOM     34 HH21 ARG A  10       4.170   4.916  -6.317  0.00  0.00    +0.255 HD
ATOM     35 HH22 ARG A  10       2.700   4.896  -7.357  0.00  0.00    +0.255 HD
ATOM     36  NH1 ARG A  10       3.853   4.007  -9.406  0.00  0.00    -0.292 N 
ATOM     37 HH11 ARG A  10       2.834   4.180  -9.522  0.00  0.00    +0.255 HD
ATOM     38 HH12 ARG A  10       4.410   3.633 -10.200  0.00  0.00    +0.255 HD
ATOM     39  HE  ARG A  10       6.278   3.681  -8.920  0.00  0.00    +0.259 HD
ENDBRANCH  30  31
ENDBRANCH  29  30
ENDBRANCH  28  29
ENDBRANCH  16  28
ENDBRANCH  13  16
ENDBRANCH  11  12
BRANCH  11  40
ATOM     40  CB  ASP A   9      11.035  -0.271  -7.711  0.00  0.00    +0.143 C 
BRANCH  40  41
ATOM     41  CG  ASP A   9      10.829  -1.750  -7.709  0.00  0.00    +0.367 C 
ATOM     42  OD2 ASP A   9       9.668  -2.174  -7.511  0.00  0.00    -0.246 OA
ATOM     43  OD1 ASP A   9      11.832  -2.480  -7.858  0.00  0.00    -0.246 OA
ENDBRANCH  40  41
ENDBRANCH  11  40
ENDBRANCH   9  11
ENDBRANCH   6   7
BRANCH   6  44
ATOM     44  CB  VAL A   8      10.898  -2.229  -2.641  0.00  0.00    +0.027 C 
ATOM     45  CG2 VAL A   8      10.219  -2.845  -1.423  0.00  0.00    +0.002 C 
ATOM     46  CG1 VAL A   8      12.411  -2.189  -2.426  0.00  0.00    +0.002 C 
ENDBRANCH   6  44
ENDBRANCH   3   6
ENDBRANCH   1   2
BRANCH   1  49
ATOM     47  C   LEU A   6       5.846  -0.372  -1.429  0.00  0.00    +0.241 C 
ATOM     48  O   LEU A   6       6.322  -1.517  -1.494  0.00  0.00    -0.273 OA
ATOM     49  N   GLY A   7       5.996   0.535  -2.390  0.00  0.00    -0.295 N 
ATOM     50  H   GLY A   7       5.563   1.475  -2.285  0.00  0.00    +0.150 HD
BRANCH  47  51
ATOM     51  CA  LEU A   6       5.038   0.076  -0.218  0.00  0.00    +0.149 C 
BRANCH  51  53
ATOM     52  C   ALA A   5       2.859  -0.801   0.430  0.00  0.00    +0.241 C 
ATOM     53  N   LEU A   6       4.167  -0.982   0.294  0.00  0.00    -0.297 N 
ATOM     54  H   LEU A   6       4.583  -1.898   0.558  0.00  0.00    +0.150 HD
ATOM     55  O   ALA A   5       2.288   0.242   0.118  0.00  0.00    -0.273 OA
BRANCH  52  56
ATOM     56  CA  ALA A   5       2.072  -1.969   1.000  0.00  0.00    +0.149 C 
ATOM     57  CB  ALA A   5       1.169  -2.540  -0.066  0.00  0.00    +0.031 C 
BRANCH  56  60
ATOM     58  C   VAL A   4       1.425  -1.995   3.372  0.00  0.00    +0.241 C 
ATOM     59  O   VAL A   4       2.240  -2.871   3.664  0.00  0.00    -0.273 OA
ATOM     60  N   ALA A   5       1.279  -1.510   2.143  0.00  0.00    -0.297 N 
ATOM     61  H   ALA A   5       0.567  -0.768   1.985  0.00  0.00    +0.150 HD
BRANCH  58  62
ATOM     62  CA  VAL A   4       0.511  -1.394   4.442  0.00  0.00    +0.149 C 
BRANCH  62  65
ATOM     63  C   GLY A   3      -1.037  -2.216   6.091  0.00  0.00    +0.243 C 
ATOM     64  O   GLY A   3      -1.762  -1.228   5.946  0.00  0.00    -0.273 OA
ATOM     65  N   VAL A   4       0.082  -2.393   5.397  0.00  0.00    -0.297 N 
ATOM     66  H   VAL A   4       0.651  -3.252   5.540  0.00  0.00    +0.150 HD
BRANCH  63  67
ATOM     67  CA  GLY A   3      -1.394  -3.304   7.074  0.00  0.00    +0.176 C 
BRANCH  67  70
ATOM     68  C   SER A   2      -2.270  -3.150   9.316  0.00  0.00    +0.243 C 
ATOM     69  O   SER A   2      -1.347  -3.833   9.767  0.00  0.00    -0.273 OA
ATOM     70  N   GLY A   3      -2.389  -2.852   8.030  0.00  0.00    -0.295 N 
ATOM     71  H   GLY A   3      -3.201  -2.290   7.703  0.00  0.00    +0.150 HD
BRANCH  68  72
ATOM     72  CA  SER A   2      -3.369  -2.627  10.236  0.00  0.00    +0.178 C 
BRANCH  72  74
ATOM     73  C   CYS A   1      -4.669  -4.196  11.532  0.00  0.00    +0.239 C 
ATOM     74  N   SER A   2      -3.500  -3.633  11.271  0.00  0.00    -0.295 N 
ATOM     75  H   SER A   2      -2.662  -3.917  11.817  0.00  0.00    +0.150 HD
ATOM     76  O   CYS A   1      -5.720  -3.846  10.988  0.00  0.00    -0.274 OA
BRANCH  73  77
ATOM     77  CA  CYS A   1      -4.640  -5.292  12.573  0.00  0.00    +0.156 C 
BRANCH  77  78
ATOM     78  CB  CYS A   1      -3.937  -6.514  11.966  0.00  0.00    +0.095 C 
ATOM     79  SG  CYS A   1      -4.742  -7.157  10.457  0.00  0.00    -0.080 S 
ENDBRANCH  77  78
BRANCH  77  80
ATOM     80  N   CYS A   1      -5.972  -5.666  13.036  0.00  0.00    -0.237 NA
ATOM     81  H   CYS A   1      -6.808  -5.399  12.478  0.00  0.00    +0.142 HD
ENDBRANCH  77  80
ENDBRANCH  73  77
ENDBRANCH  72  74
BRANCH  72  82
ATOM     82  CB  SER A   2      -2.987  -1.270  10.833  0.00  0.00    +0.166 C 
BRANCH  82  83
ATOM     83  OG  SER A   2      -4.064  -0.731  11.581  0.00  0.00    -0.380 OA
ATOM     84  H   SER A   2      -4.296  -1.351  12.317  0.00  0.00    +0.211 HD
ENDBRANCH  82  83
ENDBRANCH  72  82
ENDBRANCH  68  72
ENDBRANCH  67  70
ENDBRANCH  63  67
ENDBRANCH  62  65
BRANCH  62  85
ATOM     85  CB  VAL A   4       1.254  -0.267   5.177  0.00  0.00    +0.027 C 
ATOM     86  CG2 VAL A   4       2.423  -0.856   5.961  0.00  0.00    +0.002 C 
ATOM     87  CG1 VAL A   4       1.713   0.779   4.189  0.00  0.00    +0.002 C 
ENDBRANCH  62  85
ENDBRANCH  58  62
ENDBRANCH  56  60
ENDBRANCH  52  56
ENDBRANCH  51  53
BRANCH  51  88
ATOM     88  CB  LEU A   6       5.972   0.543   0.908  0.00  0.00    +0.029 C 
BRANCH  88  89
ATOM     89  CG  LEU A   6       7.129   1.502   0.625  0.00  0.00    +0.002 C 
ATOM     90  CD2 LEU A   6       7.452   2.255   1.918  0.00  0.00    +0.000 C 
ATOM     91  CD1 LEU A   6       8.371   0.745   0.127  0.00  0.00    +0.000 C 
ENDBRANCH  88  89
ENDBRANCH  51  88
ENDBRANCH  47  51
ENDBRANCH   1  49
TORSDOF 37
REMARK  Name = ../refined-set-2016/3a5y/3a5y_pocket.pdb
REMARK  262 active torsions:
REMARK  status: ('A' for Active; 'I' for Inactive)
REMARK    1  A    between atoms: _1  and  _3
REMARK    2  A    between atoms: _3  and  _4
REMARK    3  A    between atoms: _3  and  _6
REMARK    4  A    between atoms: _9  and  _11
REMARK    5  A    between atoms: _11  and  _12
REMARK    6  A    between atoms: _11  and  _14
REMARK    7  A    between atoms: _14  and  _15
REMARK    8  A    between atoms: _18  and  _20
REMARK    9  A    between atoms: _20  and  _21
REMARK   10  A    between atoms: _20  and  _23
REMARK   11  A    between atoms: _23  and  _24
REMARK   12  A    between atoms: _29  and  _31
REMARK   13  A    between atoms: _31  and  _32
REMARK   14  A    between atoms: _31  and  _34
REMARK   15  A    between atoms: _34  and  _35
REMARK   16  A    between atoms: _38  and  _40
REMARK   17  A    between atoms: _40  and  _41
REMARK   18  A    between atoms: _40  and  _43
REMARK   19  A    between atoms: _43  and  _44
REMARK   20  A    between atoms: _47  and  _49
REMARK   21  A    between atoms: _49  and  _50
REMARK   22  A    between atoms: _49  and  _52
REMARK   23  A    between atoms: _52  and  _53
REMARK   24  A    between atoms: _56  and  _57
REMARK   25  A    between atoms: _62  and  _64
REMARK   26  A    between atoms: _64  and  _65
REMARK   27  A    between atoms: _64  and  _67
REMARK   28  A    between atoms: _67  and  _68
REMARK   29  A    between atoms: _68  and  _69
REMARK   30  A    between atoms: _72  and  _74
REMARK   31  A    between atoms: _74  and  _75
REMARK   32  A    between atoms: _74  and  _77
REMARK   33  A    between atoms: _77  and  _78
REMARK   34  A    between atoms: _83  and  _84
REMARK   35  A    between atoms: _86  and  _88
REMARK   36  A    between atoms: _88  and  _89
REMARK   37  A    between atoms: _88  and  _91
REMARK   38  A    between atoms: _91  and  _92
REMARK   39  A    between atoms: _92  and  _93
REMARK   40  A    between atoms: _95  and  _97
REMARK   41  A    between atoms: _97  and  _98
REMARK   42  A    between atoms: _97  and  _100
REMARK   43  A    between atoms: _100  and  _101
REMARK   44  A    between atoms: _101  and  _102
REMARK   45  A    between atoms: _102  and  _103
REMARK   46  A    between atoms: _103  and  _104
REMARK   47  A    between atoms: _108  and  _110
REMARK   48  A    between atoms: _110  and  _111
REMARK   49  A    between atoms: _110  and  _113
REMARK   50  A    between atoms: _113  and  _114
REMARK   51  A    between atoms: _116  and  _118
REMARK   52  A    between atoms: _118  and  _119
REMARK   53  A    between atoms: _118  and  _121
REMARK   54  A    between atoms: _121  and  _122
REMARK   55  A    between atoms: _128  and  _130
REMARK   56  A    between atoms: _130  and  _131
REMARK   57  A    between atoms: _130  and  _133
REMARK   58  A    between atoms: _133  and  _134
REMARK   59  A    between atoms: _134  and  _135
REMARK   60  A    between atoms: _135  and  _136
REMARK   61  A    between atoms: _145  and  _147
REMARK   62  A    between atoms: _147  and  _148
REMARK   63  A    between atoms: _147  and  _150
REMARK   64  A    between atoms: _150  and  _151
REMARK   65  A    between atoms: _156  and  _158
REMARK   66  A    between atoms: _158  and  _159
REMARK   67  A    between atoms: _158  and  _161
REMARK   68  A    between atoms: _161  and  _162
REMARK   69  A    between atoms: _162  and  _163
REMARK   70  A    between atoms: _166  and  _168
REMARK   71  A    between atoms: _168  and  _169
REMARK   72  A    between atoms: _168  and  _171
REMARK   73  A    between atoms: _171  and  _172
REMARK   74  A    between atoms: _172  and  _173
REMARK   75  A    between atoms: _176  and  _178
REMARK   76  A    between atoms: _178  and  _179
REMARK   77  A    between atoms: _178  and  _181
REMARK   78  A    between atoms: _181  and  _182
REMARK   79  A    between atoms: _182  and  _183
REMARK   80  A    between atoms: _185  and  _187
REMARK   81  A    between atoms: _187  and  _188
REMARK   82  A    between atoms: _190  and  _192
REMARK   83  A    between atoms: _192  and  _193
REMARK   84  A    between atoms: _192  and  _195
REMARK   85  A    between atoms: _195  and  _196
REMARK   86  A    between atoms: _196  and  _197
REMARK   87  A    between atoms: _197  and  _198
REMARK   88  A    between atoms: _207  and  _209
REMARK   89  A    between atoms: _209  and  _210
REMARK   90  A    between atoms: _209  and  _212
REMARK   91  A    between atoms: _212  and  _213
REMARK   92  A    between atoms: _218  and  _219
REMARK   93  A    between atoms: _221  and  _223
REMARK   94  A    between atoms: _223  and  _224
REMARK   95  A    between atoms: _223  and  _226
REMARK   96  A    between atoms: _226  and  _227
REMARK   97  A    between atoms: _232  and  _234
REMARK   98  A    between atoms: _234  and  _235
REMARK   99  A    between atoms: _234  and  _237
REMARK  100  A    between atoms: _237  and  _238
REMARK  101  A    between atoms: _244  and  _245
REMARK  102  A    between atoms: _250  and  _252
REMARK  103  A    between atoms: _252  and  _253
REMARK  104  A    between atoms: _252  and  _255
REMARK  105  A    between atoms: _255  and  _256
REMARK  106  A    between atoms: _256  and  _257
REMARK  107  A    between atoms: _260  and  _262
REMARK  108  A    between atoms: _262  and  _263
REMARK  109  A    between atoms: _262  and  _265
REMARK  110  A    between atoms: _265  and  _266
REMARK  111  A    between atoms: _272  and  _274
REMARK  112  A    between atoms: _274  and  _275
REMARK  113  A    between atoms: _274  and  _277
REMARK  114  A    between atoms: _277  and  _278
REMARK  115  A    between atoms: _281  and  _283
REMARK  116  A    between atoms: _283  and  _284
REMARK  117  A    between atoms: _283  and  _286
REMARK  118  A    between atoms: _286  and  _287
REMARK  119  A    between atoms: _287  and  _288
REMARK  120  A    between atoms: _290  and  _292
REMARK  121  A    between atoms: _292  and  _293
REMARK  122  A    between atoms: _292  and  _295
REMARK  123  A    between atoms: _295  and  _296
REMARK  124  A    between atoms: _299  and  _301
REMARK  125  A    between atoms: _301  and  _302
REMARK  126  A    between atoms: _301  and  _304
REMARK  127  A    between atoms: _304  and  _305
REMARK  128  A    between atoms: _305  and  _306
REMARK  129  A    between atoms: _309  and  _311
REMARK  130  A    between atoms: _311  and  _312
REMARK  131  A    between atoms: _311  and  _314
REMARK  132  A    between atoms: _314  and  _315
REMARK  133  A    between atoms: _325  and  _327
REMARK  134  A    between atoms: _327  and  _328
REMARK  135  A    between atoms: _327  and  _330
REMARK  136  A    between atoms: _330  and  _331
REMARK  137  A    between atoms: _336  and  _337
REMARK  138  A    between atoms: _339  and  _341
REMARK  139  A    between atoms: _341  and  _342
REMARK  140  A    between atoms: _341  and  _344
REMARK  141  A    between atoms: _344  and  _345
REMARK  142  A    between atoms: _348  and  _350
REMARK  143  A    between atoms: _350  and  _351
REMARK  144  A    between atoms: _350  and  _353
REMARK  145  A    between atoms: _353  and  _354
REMARK  146  A    between atoms: _356  and  _358
REMARK  147  A    between atoms: _358  and  _359
REMARK  148  A    between atoms: _358  and  _361
REMARK  149  A    between atoms: _361  and  _362
REMARK  150  A    between atoms: _365  and  _367
REMARK  151  A    between atoms: _367  and  _368
REMARK  152  A    between atoms: _371  and  _373
REMARK  153  A    between atoms: _373  and  _374
REMARK  154  A    between atoms: _373  and  _376
REMARK  155  A    between atoms: _376  and  _377
REMARK  156  A    between atoms: _377  and  _378
REMARK  157  A    between atoms: _381  and  _383
REMARK  158  A    between atoms: _383  and  _384
REMARK  159  A    between atoms: _383  and  _386
REMARK  160  A    between atoms: _386  and  _387
REMARK  161  A    between atoms: _387  and  _388
REMARK  162  A    between atoms: _388  and  _389
REMARK  163  A    between atoms: _398  and  _400
REMARK  164  A    between atoms: _400  and  _401
REMARK  165  A    between atoms: _400  and  _403
REMARK  166  A    between atoms: _403  and  _404
REMARK  167  A    between atoms: _410  and  _412
REMARK  168  A    between atoms: _412  and  _413
REMARK  169  A    between atoms: _412  and  _415
REMARK  170  A    between atoms: _415  and  _416
REMARK  171  A    between atoms: _416  and  _417
REMARK  172  A    between atoms: _420  and  _422
REMARK  173  A    between atoms: _422  and  _423
REMARK  174  A    between atoms: _422  and  _425
REMARK  175  A    between atoms: _428  and  _430
REMARK  176  A    between atoms: _430  and  _431
REMARK  177  A    between atoms: _430  and  _433
REMARK  178  A    between atoms: _433  and  _434
REMARK  179  A    between atoms: _439  and  _440
REMARK  180  A    between atoms: _442  and  _444
REMARK  181  A    between atoms: _444  and  _445
REMARK  182  A    between atoms: _444  and  _447
REMARK  183  A    between atoms: _447  and  _448
REMARK  184  A    between atoms: _451  and  _453
REMARK  185  A    between atoms: _453  and  _454
REMARK  186  A    between atoms: _453  and  _456
REMARK  187  A    between atoms: _456  and  _457
REMARK  188  A    between atoms: _457  and  _458
REMARK  189  A    between atoms: _461  and  _463
REMARK  190  A    between atoms: _463  and  _464
REMARK  191  A    between atoms: _463  and  _466
REMARK  192  A    between atoms: _466  and  _467
REMARK  193  A    between atoms: _470  and  _472
REMARK  194  A    between atoms: _472  and  _473
REMARK  195  A    between atoms: _476  and  _478
REMARK  196  A    between atoms: _478  and  _479
REMARK  197  A    between atoms: _478  and  _481
REMARK  198  A    between atoms: _481  and  _482
REMARK  199  A    between atoms: _487  and  _489
REMARK  200  A    between atoms: _489  and  _490
REMARK  201  A    between atoms: _492  and  _494
REMARK  202  A    between atoms: _494  and  _495
REMARK  203  A    between atoms: _494  and  _497
REMARK  204  A    between atoms: _497  and  _498
REMARK  205  A    between atoms: _504  and  _506
REMARK  206  A    between atoms: _506  and  _507
REMARK  207  A    between atoms: _506  and  _509
REMARK  208  A    between atoms: _509  and  _510
REMARK  209  A    between atoms: _515  and  _517
REMARK  210  A    between atoms: _517  and  _518
REMARK  211  A    between atoms: _517  and  _520
REMARK  212  A    between atoms: _520  and  _521
REMARK  213  A    between atoms: _521  and  _522
REMARK  214  A    between atoms: _525  and  _527
REMARK  215  A    between atoms: _527  and  _528
REMARK  216  A    between atoms: _527  and  _530
REMARK  217  A    between atoms: _530  and  _531
REMARK  218  A    between atoms: _534  and  _536
REMARK  219  A    between atoms: _536  and  _537
REMARK  220  A    between atoms: _536  and  _539
REMARK  221  A    between atoms: _541  and  _543
REMARK  222  A    between atoms: _543  and  _544
REMARK  223  A    between atoms: _543  and  _546
REMARK  224  A    between atoms: _546  and  _547
REMARK  225  A    between atoms: _549  and  _551
REMARK  226  A    between atoms: _551  and  _552
REMARK  227  A    between atoms: _554  and  _556
REMARK  228  A    between atoms: _556  and  _557
REMARK  229  A    between atoms: _556  and  _559
REMARK  230  A    between atoms: _562  and  _564
REMARK  231  A    between atoms: _564  and  _565
REMARK  232  A    between atoms: _568  and  _570
REMARK  233  A    between atoms: _570  and  _571
REMARK  234  A    between atoms: _570  and  _573
REMARK  235  A    between atoms: _573  and  _574
REMARK  236  A    between atoms: _577  and  _579
REMARK  237  A    between atoms: _579  and  _580
REMARK  238  A    between atoms: _582  and  _584
REMARK  239  A    between atoms: _584  and  _585
REMARK  240  A    between atoms: _584  and  _587
REMARK  241  A    between atoms: _590  and  _592
REMARK  242  A    between atoms: _592  and  _593
REMARK  243  A    between atoms: _592  and  _595
REMARK  244  A    between atoms: _595  and  _596
REMARK  245  A    between atoms: _599  and  _601
REMARK  246  A    between atoms: _601  and  _602
REMARK  247  A    between atoms: _601  and  _604
REMARK  248  A    between atoms: _604  and  _605
REMARK  249  A    between atoms: _605  and  _606
REMARK  250  A    between atoms: _606  and  _607
REMARK  251  A    between atoms: _616  and  _618
REMARK  252  A    between atoms: _618  and  _619
REMARK  253  A    between atoms: _618  and  _621
REMARK  254  A    between atoms: _621  and  _622
REMARK  255  A    between atoms: _625  and  _627
REMARK  256  A    between atoms: _627  and  _628
REMARK  257  A    between atoms: _627  and  _630
REMARK  258  A    between atoms: _630  and  _631
REMARK  259  A    between atoms: _634  and  _636
REMARK  260  A    between atoms: _636  and  _637
REMARK  261  A    between atoms: _636  and  _639
REMARK  262  A    between atoms: _639  and  _640
REMARK                            x       y       z     vdW  Elec       q    Type
REMARK                         _______ _______ _______ _____ _____    ______ ____
ROOT
ATOM      1  CA  LEU A   1      12.372   2.973 -11.989  0.00  0.00    +0.133 C 
ENDROOT
BRANCH   1   2
ATOM      2  N   LEU A   1      12.407   4.263 -12.653  0.00  0.00    -0.239 NA
ATOM      3  H   LEU A   1      11.550   4.627 -13.116  0.00  0.00    +0.142 HD
ENDBRANCH   1   2
BRANCH   1   4
ATOM      4  C   LEU A   1      13.350   2.039 -12.697  0.00  0.00    +0.224 C 
ATOM      5  O   LEU A   1      14.033   1.229 -12.060  0.00  0.00    -0.287 OA
ENDBRANCH   1   4
BRANCH   1   6
ATOM      6  CB  LEU A   1      10.952   2.389 -12.056  0.00  0.00    +0.025 C 
BRANCH   6   7
ATOM      7  CG  LEU A   1      10.446   1.701 -10.788  0.00  0.00    +0.002 C 
ATOM      8  CD2 LEU A   1      10.396   2.724  -9.662  0.00  0.00    +0.000 C 
ATOM      9  CD1 LEU A   1       9.058   1.113 -11.015  0.00  0.00    +0.000 C 
ENDBRANCH   6   7
ENDBRANCH   1   6
TORSDOF 4
REMARK  Name = ../refined-set-2016/3a5y/3a5y_pocket.pdb
REMARK  262 active torsions:
REMARK  status: ('A' for Active; 'I' for Inactive)
REMARK    1  A    between atoms: _1  and  _3
REMARK    2  A    between atoms: _3  and  _4
REMARK    3  A    between atoms: _3  and  _6
REMARK    4  A    between atoms: _9  and  _11
REMARK    5  A    between atoms: _11  and  _12
REMARK    6  A    between atoms: _11  and  _14
REMARK    7  A    between atoms: _14  and  _15
REMARK    8  A    between atoms: _18  and  _20
REMARK    9  A    between atoms: _20  and  _21
REMARK   10  A    between atoms: _20  and  _23
REMARK   11  A    between atoms: _23  and  _24
REMARK   12  A    between atoms: _29  and  _31
REMARK   13  A    between atoms: _31  and  _32
REMARK   14  A    between atoms: _31  and  _34
REMARK   15  A    between atoms: _34  and  _35
REMARK   16  A    between atoms: _38  and  _40
REMARK   17  A    between atoms: _40  and  _41
REMARK   18  A    between atoms: _40  and  _43
REMARK   19  A    between atoms: _43  and  _44
REMARK   20  A    between atoms: _47  and  _49
REMARK   21  A    between atoms: _49  and  _50
REMARK   22  A    between atoms: _49  and  _52
REMARK   23  A    between atoms: _52  and  _53
REMARK   24  A    between atoms: _56  and  _57
REMARK   25  A    between atoms: _62  and  _64
REMARK   26  A    between atoms: _64  and  _65
REMARK   27  A    between atoms: _64  and  _67
REMARK   28  A    between atoms: _67  and  _68
REMARK   29  A    between atoms: _68  and  _69
REMARK   30  A    between atoms: _72  and  _74
REMARK   31  A    between atoms: _74  and  _75
REMARK   32  A    between atoms: _74  and  _77
REMARK   33  A    between atoms: _77  and  _78
REMARK   34  A    between atoms: _83  and  _84
REMARK   35  A    between atoms: _86  and  _88
REMARK   36  A    between atoms: _88  and  _89
REMARK   37  A    between atoms: _88  and  _91
REMARK   38  A    between atoms: _91  and  _92
REMARK   39  A    between atoms: _92  and  _93
REMARK   40  A    between atoms: _95  and  _97
REMARK   41  A    between atoms: _97  and  _98
REMARK   42  A    between atoms: _97  and  _100
REMARK   43  A    between atoms: _100  and  _101
REMARK   44  A    between atoms: _101  and  _102
REMARK   45  A    between atoms: _102  and  _103
REMARK   46  A    between atoms: _103  and  _104
REMARK   47  A    between atoms: _108  and  _110
REMARK   48  A    between atoms: _110  and  _111
REMARK   49  A    between atoms: _110  and  _113
REMARK   50  A    between atoms: _113  and  _114
REMARK   51  A    between atoms: _116  and  _118
REMARK   52  A    between atoms: _118  and  _119
REMARK   53  A    between atoms: _118  and  _121
REMARK   54  A    between atoms: _121  and  _122
REMARK   55  A    between atoms: _128  and  _130
REMARK   56  A    between atoms: _130  and  _131
REMARK   57  A    between atoms: _130  and  _133
REMARK   58  A    between atoms: _133  and  _134
REMARK   59  A    between atoms: _134  and  _135
REMARK   60  A    between atoms: _135  and  _136
REMARK   61  A    between atoms: _145  and  _147
REMARK   62  A    between atoms: _147  and  _148
REMARK   63  A    between atoms: _147  and  _150
REMARK   64  A    between atoms: _150  and  _151
REMARK   65  A    between atoms: _156  and  _158
REMARK   66  A    between atoms: _158  and  _159
REMARK   67  A    between atoms: _158  and  _161
REMARK   68  A    between atoms: _161  and  _162
REMARK   69  A    between atoms: _162  and  _163
REMARK   70  A    between atoms: _166  and  _168
REMARK   71  A    between atoms: _168  and  _169
REMARK   72  A    between atoms: _168  and  _171
REMARK   73  A    between atoms: _171  and  _172
REMARK   74  A    between atoms: _172  and  _173
REMARK   75  A    between atoms: _176  and  _178
REMARK   76  A    between atoms: _178  and  _179
REMARK   77  A    between atoms: _178  and  _181
REMARK   78  A    between atoms: _181  and  _182
REMARK   79  A    between atoms: _182  and  _183
REMARK   80  A    between atoms: _185  and  _187
REMARK   81  A    between atoms: _187  and  _188
REMARK   82  A    between atoms: _190  and  _192
REMARK   83  A    between atoms: _192  and  _193
REMARK   84  A    between atoms: _192  and  _195
REMARK   85  A    between atoms: _195  and  _196
REMARK   86  A    between atoms: _196  and  _197
REMARK   87  A    between atoms: _197  and  _198
REMARK   88  A    between atoms: _207  and  _209
REMARK   89  A    between atoms: _209  and  _210
REMARK   90  A    between atoms: _209  and  _212
REMARK   91  A    between atoms: _212  and  _213
REMARK   92  A    between atoms: _218  and  _219
REMARK   93  A    between atoms: _221  and  _223
REMARK   94  A    between atoms: _223  and  _224
REMARK   95  A    between atoms: _223  and  _226
REMARK   96  A    between atoms: _226  and  _227
REMARK   97  A    between atoms: _232  and  _234
REMARK   98  A    between atoms: _234  and  _235
REMARK   99  A    between atoms: _234  and  _237
REMARK  100  A    between atoms: _237  and  _238
REMARK  101  A    between atoms: _244  and  _245
REMARK  102  A    between atoms: _250  and  _252
REMARK  103  A    between atoms: _252  and  _253
REMARK  104  A    between atoms: _252  and  _255
REMARK  105  A    between atoms: _255  and  _256
REMARK  106  A    between atoms: _256  and  _257
REMARK  107  A    between atoms: _260  and  _262
REMARK  108  A    between atoms: _262  and  _263
REMARK  109  A    between atoms: _262  and  _265
REMARK  110  A    between atoms: _265  and  _266
REMARK  111  A    between atoms: _272  and  _274
REMARK  112  A    between atoms: _274  and  _275
REMARK  113  A    between atoms: _274  and  _277
REMARK  114  A    between atoms: _277  and  _278
REMARK  115  A    between atoms: _281  and  _283
REMARK  116  A    between atoms: _283  and  _284
REMARK  117  A    between atoms: _283  and  _286
REMARK  118  A    between atoms: _286  and  _287
REMARK  119  A    between atoms: _287  and  _288
REMARK  120  A    between atoms: _290  and  _292
REMARK  121  A    between atoms: _292  and  _293
REMARK  122  A    between atoms: _292  and  _295
REMARK  123  A    between atoms: _295  and  _296
REMARK  124  A    between atoms: _299  and  _301
REMARK  125  A    between atoms: _301  and  _302
REMARK  126  A    between atoms: _301  and  _304
REMARK  127  A    between atoms: _304  and  _305
REMARK  128  A    between atoms: _305  and  _306
REMARK  129  A    between atoms: _309  and  _311
REMARK  130  A    between atoms: _311  and  _312
REMARK  131  A    between atoms: _311  and  _314
REMARK  132  A    between atoms: _314  and  _315
REMARK  133  A    between atoms: _325  and  _327
REMARK  134  A    between atoms: _327  and  _328
REMARK  135  A    between atoms: _327  and  _330
REMARK  136  A    between atoms: _330  and  _331
REMARK  137  A    between atoms: _336  and  _337
REMARK  138  A    between atoms: _339  and  _341
REMARK  139  A    between atoms: _341  and  _342
REMARK  140  A    between atoms: _341  and  _344
REMARK  141  A    between atoms: _344  and  _345
REMARK  142  A    between atoms: _348  and  _350
REMARK  143  A    between atoms: _350  and  _351
REMARK  144  A    between atoms: _350  and  _353
REMARK  145  A    between atoms: _353  and  _354
REMARK  146  A    between atoms: _356  and  _358
REMARK  147  A    between atoms: _358  and  _359
REMARK  148  A    between atoms: _358  and  _361
REMARK  149  A    between atoms: _361  and  _362
REMARK  150  A    between atoms: _365  and  _367
REMARK  151  A    between atoms: _367  and  _368
REMARK  152  A    between atoms: _371  and  _373
REMARK  153  A    between atoms: _373  and  _374
REMARK  154  A    between atoms: _373  and  _376
REMARK  155  A    between atoms: _376  and  _377
REMARK  156  A    between atoms: _377  and  _378
REMARK  157  A    between atoms: _381  and  _383
REMARK  158  A    between atoms: _383  and  _384
REMARK  159  A    between atoms: _383  and  _386
REMARK  160  A    between atoms: _386  and  _387
REMARK  161  A    between atoms: _387  and  _388
REMARK  162  A    between atoms: _388  and  _389
REMARK  163  A    between atoms: _398  and  _400
REMARK  164  A    between atoms: _400  and  _401
REMARK  165  A    between atoms: _400  and  _403
REMARK  166  A    between atoms: _403  and  _404
REMARK  167  A    between atoms: _410  and  _412
REMARK  168  A    between atoms: _412  and  _413
REMARK  169  A    between atoms: _412  and  _415
REMARK  170  A    between atoms: _415  and  _416
REMARK  171  A    between atoms: _416  and  _417
REMARK  172  A    between atoms: _420  and  _422
REMARK  173  A    between atoms: _422  and  _423
REMARK  174  A    between atoms: _422  and  _425
REMARK  175  A    between atoms: _428  and  _430
REMARK  176  A    between atoms: _430  and  _431
REMARK  177  A    between atoms: _430  and  _433
REMARK  178  A    between atoms: _433  and  _434
REMARK  179  A    between atoms: _439  and  _440
REMARK  180  A    between atoms: _442  and  _444
REMARK  181  A    between atoms: _444  and  _445
REMARK  182  A    between atoms: _444  and  _447
REMARK  183  A    between atoms: _447  and  _448
REMARK  184  A    between atoms: _451  and  _453
REMARK  185  A    between atoms: _453  and  _454
REMARK  186  A    between atoms: _453  and  _456
REMARK  187  A    between atoms: _456  and  _457
REMARK  188  A    between atoms: _457  and  _458
REMARK  189  A    between atoms: _461  and  _463
REMARK  190  A    between atoms: _463  and  _464
REMARK  191  A    between atoms: _463  and  _466
REMARK  192  A    between atoms: _466  and  _467
REMARK  193  A    between atoms: _470  and  _472
REMARK  194  A    between atoms: _472  and  _473
REMARK  195  A    between atoms: _476  and  _478
REMARK  196  A    between atoms: _478  and  _479
REMARK  197  A    between atoms: _478  and  _481
REMARK  198  A    between atoms: _481  and  _482
REMARK  199  A    between atoms: _487  and  _489
REMARK  200  A    between atoms: _489  and  _490
REMARK  201  A    between atoms: _492  and  _494
REMARK  202  A    between atoms: _494  and  _495
REMARK  203  A    between atoms: _494  and  _497
REMARK  204  A    between atoms: _497  and  _498
REMARK  205  A    between atoms: _504  and  _506
REMARK  206  A    between atoms: _506  and  _507
REMARK  207  A    between atoms: _506  and  _509
REMARK  208  A    between atoms: _509  and  _510
REMARK  209  A    between atoms: _515  and  _517
REMARK  210  A    between atoms: _517  and  _518
REMARK  211  A    between atoms: _517  and  _520
REMARK  212  A    between atoms: _520  and  _521
REMARK  213  A    between atoms: _521  and  _522
REMARK  214  A    between atoms: _525  and  _527
REMARK  215  A    between atoms: _527  and  _528
REMARK  216  A    between atoms: _527  and  _530
REMARK  217  A    between atoms: _530  and  _531
REMARK  218  A    between atoms: _534  and  _536
REMARK  219  A    between atoms: _536  and  _537
REMARK  220  A    between atoms: _536  and  _539
REMARK  221  A    between atoms: _541  and  _543
REMARK  222  A    between atoms: _543  and  _544
REMARK  223  A    between atoms: _543  and  _546
REMARK  224  A    between atoms: _546  and  _547
REMARK  225  A    between atoms: _549  and  _551
REMARK  226  A    between atoms: _551  and  _552
REMARK  227  A    between atoms: _554  and  _556
REMARK  228  A    between atoms: _556  and  _557
REMARK  229  A    between atoms: _556  and  _559
REMARK  230  A    between atoms: _562  and  _564
REMARK  231  A    between atoms: _564  and  _565
REMARK  232  A    between atoms: _568  and  _570
REMARK  233  A    between atoms: _570  and  _571
REMARK  234  A    between atoms: _570  and  _573
REMARK  235  A    between atoms: _573  and  _574
REMARK  236  A    between atoms: _577  and  _579
REMARK  237  A    between atoms: _579  and  _580
REMARK  238  A    between atoms: _582  and  _584
REMARK  239  A    between atoms: _584  and  _585
REMARK  240  A    between atoms: _584  and  _587
REMARK  241  A    between atoms: _590  and  _592
REMARK  242  A    between atoms: _592  and  _593
REMARK  243  A    between atoms: _592  and  _595
REMARK  244  A    between atoms: _595  and  _596
REMARK  245  A    between atoms: _599  and  _601
REMARK  246  A    between atoms: _601  and  _602
REMARK  247  A    between atoms: _601  and  _604
REMARK  248  A    between atoms: _604  and  _605
REMARK  249  A    between atoms: _605  and  _606
REMARK  250  A    between atoms: _606  and  _607
REMARK  251  A    between atoms: _616  and  _618
REMARK  252  A    between atoms: _618  and  _619
REMARK  253  A    between atoms: _618  and  _621
REMARK  254  A    between atoms: _621  and  _622
REMARK  255  A    between atoms: _625  and  _627
REMARK  256  A    between atoms: _627  and  _628
REMARK  257  A    between atoms: _627  and  _630
REMARK  258  A    between atoms: _630  and  _631
REMARK  259  A    between atoms: _634  and  _636
REMARK  260  A    between atoms: _636  and  _637
REMARK  261  A    between atoms: _636  and  _639
REMARK  262  A    between atoms: _639  and  _640
REMARK                            x       y       z     vdW  Elec       q    Type
REMARK                         _______ _______ _______ _____ _____    ______ ____
ROOT
ATOM      1  CA  ILE A   1      15.596  -2.609 -11.545  0.00  0.00    +0.133 C 
ENDROOT
BRANCH   1   2
ATOM      2  N   ILE A   1      16.080  -1.245 -11.319  0.00  0.00    -0.239 NA
ATOM      3  H   ILE A   1      16.054  -0.572 -12.112  0.00  0.00    +0.142 HD
ENDBRANCH   1   2
BRANCH   1   4
ATOM      4  CB  ILE A   1      14.151  -2.559 -12.122  0.00  0.00    +0.023 C 
ATOM      5  CG2 ILE A   1      13.725  -3.937 -12.656  0.00  0.00    +0.002 C 
BRANCH   4   6
ATOM      6  CG1 ILE A   1      13.198  -2.048 -11.019  0.00  0.00    +0.002 C 
ATOM      7  CD1 ILE A   1      11.742  -1.830 -11.457  0.00  0.00    +0.000 C 
ENDBRANCH   4   6
ENDBRANCH   1   4
BRANCH   1   8
ATOM      8  C   ILE A   1      16.575  -3.197 -12.550  0.00  0.00    +0.224 C 
ATOM      9  O   ILE A   1      16.846  -2.574 -13.574  0.00  0.00    -0.287 OA
ENDBRANCH   1   8
TORSDOF 4
REMARK  Name = ../refined-set-2016/3a5y/3a5y_pocket.pdb
REMARK  262 active torsions:
REMARK  status: ('A' for Active; 'I' for Inactive)
REMARK    1  A    between atoms: _1  and  _3
REMARK    2  A    between atoms: _3  and  _4
REMARK    3  A    between atoms: _3  and  _6
REMARK    4  A    between atoms: _9  and  _11
REMARK    5  A    between atoms: _11  and  _12
REMARK    6  A    between atoms: _11  and  _14
REMARK    7  A    between atoms: _14  and  _15
REMARK    8  A    between atoms: _18  and  _20
REMARK    9  A    between atoms: _20  and  _21
REMARK   10  A    between atoms: _20  and  _23
REMARK   11  A    between atoms: _23  and  _24
REMARK   12  A    between atoms: _29  and  _31
REMARK   13  A    between atoms: _31  and  _32
REMARK   14  A    between atoms: _31  and  _34
REMARK   15  A    between atoms: _34  and  _35
REMARK   16  A    between atoms: _38  and  _40
REMARK   17  A    between atoms: _40  and  _41
REMARK   18  A    between atoms: _40  and  _43
REMARK   19  A    between atoms: _43  and  _44
REMARK   20  A    between atoms: _47  and  _49
REMARK   21  A    between atoms: _49  and  _50
REMARK   22  A    between atoms: _49  and  _52
REMARK   23  A    between atoms: _52  and  _53
REMARK   24  A    between atoms: _56  and  _57
REMARK   25  A    between atoms: _62  and  _64
REMARK   26  A    between atoms: _64  and  _65
REMARK   27  A    between atoms: _64  and  _67
REMARK   28  A    between atoms: _67  and  _68
REMARK   29  A    between atoms: _68  and  _69
REMARK   30  A    between atoms: _72  and  _74
REMARK   31  A    between atoms: _74  and  _75
REMARK   32  A    between atoms: _74  and  _77
REMARK   33  A    between atoms: _77  and  _78
REMARK   34  A    between atoms: _83  and  _84
REMARK   35  A    between atoms: _86  and  _88
REMARK   36  A    between atoms: _88  and  _89
REMARK   37  A    between atoms: _88  and  _91
REMARK   38  A    between atoms: _91  and  _92
REMARK   39  A    between atoms: _92  and  _93
REMARK   40  A    between atoms: _95  and  _97
REMARK   41  A    between atoms: _97  and  _98
REMARK   42  A    between atoms: _97  and  _100
REMARK   43  A    between atoms: _100  and  _101
REMARK   44  A    between atoms: _101  and  _102
REMARK   45  A    between atoms: _102  and  _103
REMARK   46  A    between atoms: _103  and  _104
REMARK   47  A    between atoms: _108  and  _110
REMARK   48  A    between atoms: _110  and  _111
REMARK   49  A    between atoms: _110  and  _113
REMARK   50  A    between atoms: _113  and  _114
REMARK   51  A    between atoms: _116  and  _118
REMARK   52  A    between atoms: _118  and  _119
REMARK   53  A    between atoms: _118  and  _121
REMARK   54  A    between atoms: _121  and  _122
REMARK   55  A    between atoms: _128  and  _130
REMARK   56  A    between atoms: _130  and  _131
REMARK   57  A    between atoms: _130  and  _133
REMARK   58  A    between atoms: _133  and  _134
REMARK   59  A    between atoms: _134  and  _135
REMARK   60  A    between atoms: _135  and  _136
REMARK   61  A    between atoms: _145  and  _147
REMARK   62  A    between atoms: _147  and  _148
REMARK   63  A    between atoms: _147  and  _150
REMARK   64  A    between atoms: _150  and  _151
REMARK   65  A    between atoms: _156  and  _158
REMARK   66  A    between atoms: _158  and  _159
REMARK   67  A    between atoms: _158  and  _161
REMARK   68  A    between atoms: _161  and  _162
REMARK   69  A    between atoms: _162  and  _163
REMARK   70  A    between atoms: _166  and  _168
REMARK   71  A    between atoms: _168  and  _169
REMARK   72  A    between atoms: _168  and  _171
REMARK   73  A    between atoms: _171  and  _172
REMARK   74  A    between atoms: _172  and  _173
REMARK   75  A    between atoms: _176  and  _178
REMARK   76  A    between atoms: _178  and  _179
REMARK   77  A    between atoms: _178  and  _181
REMARK   78  A    between atoms: _181  and  _182
REMARK   79  A    between atoms: _182  and  _183
REMARK   80  A    between atoms: _185  and  _187
REMARK   81  A    between atoms: _187  and  _188
REMARK   82  A    between atoms: _190  and  _192
REMARK   83  A    between atoms: _192  and  _193
REMARK   84  A    between atoms: _192  and  _195
REMARK   85  A    between atoms: _195  and  _196
REMARK   86  A    between atoms: _196  and  _197
REMARK   87  A    between atoms: _197  and  _198
REMARK   88  A    between atoms: _207  and  _209
REMARK   89  A    between atoms: _209  and  _210
REMARK   90  A    between atoms: _209  and  _212
REMARK   91  A    between atoms: _212  and  _213
REMARK   92  A    between atoms: _218  and  _219
REMARK   93  A    between atoms: _221  and  _223
REMARK   94  A    between atoms: _223  and  _224
REMARK   95  A    between atoms: _223  and  _226
REMARK   96  A    between atoms: _226  and  _227
REMARK   97  A    between atoms: _232  and  _234
REMARK   98  A    between atoms: _234  and  _235
REMARK   99  A    between atoms: _234  and  _237
REMARK  100  A    between atoms: _237  and  _238
REMARK  101  A    between atoms: _244  and  _245
REMARK  102  A    between atoms: _250  and  _252
REMARK  103  A    between atoms: _252  and  _253
REMARK  104  A    between atoms: _252  and  _255
REMARK  105  A    between atoms: _255  and  _256
REMARK  106  A    between atoms: _256  and  _257
REMARK  107  A    between atoms: _260  and  _262
REMARK  108  A    between atoms: _262  and  _263
REMARK  109  A    between atoms: _262  and  _265
REMARK  110  A    between atoms: _265  and  _266
REMARK  111  A    between atoms: _272  and  _274
REMARK  112  A    between atoms: _274  and  _275
REMARK  113  A    between atoms: _274  and  _277
REMARK  114  A    between atoms: _277  and  _278
REMARK  115  A    between atoms: _281  and  _283
REMARK  116  A    between atoms: _283  and  _284
REMARK  117  A    between atoms: _283  and  _286
REMARK  118  A    between atoms: _286  and  _287
REMARK  119  A    between atoms: _287  and  _288
REMARK  120  A    between atoms: _290  and  _292
REMARK  121  A    between atoms: _292  and  _293
REMARK  122  A    between atoms: _292  and  _295
REMARK  123  A    between atoms: _295  and  _296
REMARK  124  A    between atoms: _299  and  _301
REMARK  125  A    between atoms: _301  and  _302
REMARK  126  A    between atoms: _301  and  _304
REMARK  127  A    between atoms: _304  and  _305
REMARK  128  A    between atoms: _305  and  _306
REMARK  129  A    between atoms: _309  and  _311
REMARK  130  A    between atoms: _311  and  _312
REMARK  131  A    between atoms: _311  and  _314
REMARK  132  A    between atoms: _314  and  _315
REMARK  133  A    between atoms: _325  and  _327
REMARK  134  A    between atoms: _327  and  _328
REMARK  135  A    between atoms: _327  and  _330
REMARK  136  A    between atoms: _330  and  _331
REMARK  137  A    between atoms: _336  and  _337
REMARK  138  A    between atoms: _339  and  _341
REMARK  139  A    between atoms: _341  and  _342
REMARK  140  A    between atoms: _341  and  _344
REMARK  141  A    between atoms: _344  and  _345
REMARK  142  A    between atoms: _348  and  _350
REMARK  143  A    between atoms: _350  and  _351
REMARK  144  A    between atoms: _350  and  _353
REMARK  145  A    between atoms: _353  and  _354
REMARK  146  A    between atoms: _356  and  _358
REMARK  147  A    between atoms: _358  and  _359
REMARK  148  A    between atoms: _358  and  _361
REMARK  149  A    between atoms: _361  and  _362
REMARK  150  A    between atoms: _365  and  _367
REMARK  151  A    between atoms: _367  and  _368
REMARK  152  A    between atoms: _371  and  _373
REMARK  153  A    between atoms: _373  and  _374
REMARK  154  A    between atoms: _373  and  _376
REMARK  155  A    between atoms: _376  and  _377
REMARK  156  A    between atoms: _377  and  _378
REMARK  157  A    between atoms: _381  and  _383
REMARK  158  A    between atoms: _383  and  _384
REMARK  159  A    between atoms: _383  and  _386
REMARK  160  A    between atoms: _386  and  _387
REMARK  161  A    between atoms: _387  and  _388
REMARK  162  A    between atoms: _388  and  _389
REMARK  163  A    between atoms: _398  and  _400
REMARK  164  A    between atoms: _400  and  _401
REMARK  165  A    between atoms: _400  and  _403
REMARK  166  A    between atoms: _403  and  _404
REMARK  167  A    between atoms: _410  and  _412
REMARK  168  A    between atoms: _412  and  _413
REMARK  169  A    between atoms: _412  and  _415
REMARK  170  A    between atoms: _415  and  _416
REMARK  171  A    between atoms: _416  and  _417
REMARK  172  A    between atoms: _420  and  _422
REMARK  173  A    between atoms: _422  and  _423
REMARK  174  A    between atoms: _422  and  _425
REMARK  175  A    between atoms: _428  and  _430
REMARK  176  A    between atoms: _430  and  _431
REMARK  177  A    between atoms: _430  and  _433
REMARK  178  A    between atoms: _433  and  _434
REMARK  179  A    between atoms: _439  and  _440
REMARK  180  A    between atoms: _442  and  _444
REMARK  181  A    between atoms: _444  and  _445
REMARK  182  A    between atoms: _444  and  _447
REMARK  183  A    between atoms: _447  and  _448
REMARK  184  A    between atoms: _451  and  _453
REMARK  185  A    between atoms: _453  and  _454
REMARK  186  A    between atoms: _453  and  _456
REMARK  187  A    between atoms: _456  and  _457
REMARK  188  A    between atoms: _457  and  _458
REMARK  189  A    between atoms: _461  and  _463
REMARK  190  A    between atoms: _463  and  _464
REMARK  191  A    between atoms: _463  and  _466
REMARK  192  A    between atoms: _466  and  _467
REMARK  193  A    between atoms: _470  and  _472
REMARK  194  A    between atoms: _472  and  _473
REMARK  195  A    between atoms: _476  and  _478
REMARK  196  A    between atoms: _478  and  _479
REMARK  197  A    between atoms: _478  and  _481
REMARK  198  A    between atoms: _481  and  _482
REMARK  199  A    between atoms: _487  and  _489
REMARK  200  A    between atoms: _489  and  _490
REMARK  201  A    between atoms: _492  and  _494
REMARK  202  A    between atoms: _494  and  _495
REMARK  203  A    between atoms: _494  and  _497
REMARK  204  A    between atoms: _497  and  _498
REMARK  205  A    between atoms: _504  and  _506
REMARK  206  A    between atoms: _506  and  _507
REMARK  207  A    between atoms: _506  and  _509
REMARK  208  A    between atoms: _509  and  _510
REMARK  209  A    between atoms: _515  and  _517
REMARK  210  A    between atoms: _517  and  _518
REMARK  211  A    between atoms: _517  and  _520
REMARK  212  A    between atoms: _520  and  _521
REMARK  213  A    between atoms: _521  and  _522
REMARK  214  A    between atoms: _525  and  _527
REMARK  215  A    between atoms: _527  and  _528
REMARK  216  A    between atoms: _527  and  _530
REMARK  217  A    between atoms: _530  and  _531
REMARK  218  A    between atoms: _534  and  _536
REMARK  219  A    between atoms: _536  and  _537
REMARK  220  A    between atoms: _536  and  _539
REMARK  221  A    between atoms: _541  and  _543
REMARK  222  A    between atoms: _543  and  _544
REMARK  223  A    between atoms: _543  and  _546
REMARK  224  A    between atoms: _546  and  _547
REMARK  225  A    between atoms: _549  and  _551
REMARK  226  A    between atoms: _551  and  _552
REMARK  227  A    between atoms: _554  and  _556
REMARK  228  A    between atoms: _556  and  _557
REMARK  229  A    between atoms: _556  and  _559
REMARK  230  A    between atoms: _562  and  _564
REMARK  231  A    between atoms: _564  and  _565
REMARK  232  A    between atoms: _568  and  _570
REMARK  233  A    between atoms: _570  and  _571
REMARK  234  A    between atoms: _570  and  _573
REMARK  235  A    between atoms: _573  and  _574
REMARK  236  A    between atoms: _577  and  _579
REMARK  237  A    between atoms: _579  and  _580
REMARK  238  A    between atoms: _582  and  _584
REMARK  239  A    between atoms: _584  and  _585
REMARK  240  A    between atoms: _584  and  _587
REMARK  241  A    between atoms: _590  and  _592
REMARK  242  A    between atoms: _592  and  _593
REMARK  243  A    between atoms: _592  and  _595
REMARK  244  A    between atoms: _595  and  _596
REMARK  245  A    between atoms: _599  and  _601
REMARK  246  A    between atoms: _601  and  _602
REMARK  247  A    between atoms: _601  and  _604
REMARK  248  A    between atoms: _604  and  _605
REMARK  249  A    between atoms: _605  and  _606
REMARK  250  A    between atoms: _606  and  _607
REMARK  251  A    between atoms: _616  and  _618
REMARK  252  A    between atoms: _618  and  _619
REMARK  253  A    between atoms: _618  and  _621
REMARK  254  A    between atoms: _621  and  _622
REMARK  255  A    between atoms: _625  and  _627
REMARK  256  A    between atoms: _627  and  _628
REMARK  257  A    between atoms: _627  and  _630
REMARK  258  A    between atoms: _630  and  _631
REMARK  259  A    between atoms: _634  and  _636
REMARK  260  A    between atoms: _636  and  _637
REMARK  261  A    between atoms: _636  and  _639
REMARK  262  A    between atoms: _639  and  _640
REMARK                            x       y       z     vdW  Elec       q    Type
REMARK                         _______ _______ _______ _____ _____    ______ ____
ROOT
ATOM      1  O   HOH     1      -6.708   2.871  -5.001  0.00  0.00    +0.000 OA
ENDROOT
TORSDOF 0
REMARK  Name = ../refined-set-2016/3a5y/3a5y_pocket.pdb
REMARK  262 active torsions:
REMARK  status: ('A' for Active; 'I' for Inactive)
REMARK    1  A    between atoms: _1  and  _3
REMARK    2  A    between atoms: _3  and  _4
REMARK    3  A    between atoms: _3  and  _6
REMARK    4  A    between atoms: _9  and  _11
REMARK    5  A    between atoms: _11  and  _12
REMARK    6  A    between atoms: _11  and  _14
REMARK    7  A    between atoms: _14  and  _15
REMARK    8  A    between atoms: _18  and  _20
REMARK    9  A    between atoms: _20  and  _21
REMARK   10  A    between atoms: _20  and  _23
REMARK   11  A    between atoms: _23  and  _24
REMARK   12  A    between atoms: _29  and  _31
REMARK   13  A    between atoms: _31  and  _32
REMARK   14  A    between atoms: _31  and  _34
REMARK   15  A    between atoms: _34  and  _35
REMARK   16  A    between atoms: _38  and  _40
REMARK   17  A    between atoms: _40  and  _41
REMARK   18  A    between atoms: _40  and  _43
REMARK   19  A    between atoms: _43  and  _44
REMARK   20  A    between atoms: _47  and  _49
REMARK   21  A    between atoms: _49  and  _50
REMARK   22  A    between atoms: _49  and  _52
REMARK   23  A    between atoms: _52  and  _53
REMARK   24  A    between atoms: _56  and  _57
REMARK   25  A    between atoms: _62  and  _64
REMARK   26  A    between atoms: _64  and  _65
REMARK   27  A    between atoms: _64  and  _67
REMARK   28  A    between atoms: _67  and  _68
REMARK   29  A    between atoms: _68  and  _69
REMARK   30  A    between atoms: _72  and  _74
REMARK   31  A    between atoms: _74  and  _75
REMARK   32  A    between atoms: _74  and  _77
REMARK   33  A    between atoms: _77  and  _78
REMARK   34  A    between atoms: _83  and  _84
REMARK   35  A    between atoms: _86  and  _88
REMARK   36  A    between atoms: _88  and  _89
REMARK   37  A    between atoms: _88  and  _91
REMARK   38  A    between atoms: _91  and  _92
REMARK   39  A    between atoms: _92  and  _93
REMARK   40  A    between atoms: _95  and  _97
REMARK   41  A    between atoms: _97  and  _98
REMARK   42  A    between atoms: _97  and  _100
REMARK   43  A    between atoms: _100  and  _101
REMARK   44  A    between atoms: _101  and  _102
REMARK   45  A    between atoms: _102  and  _103
REMARK   46  A    between atoms: _103  and  _104
REMARK   47  A    between atoms: _108  and  _110
REMARK   48  A    between atoms: _110  and  _111
REMARK   49  A    between atoms: _110  and  _113
REMARK   50  A    between atoms: _113  and  _114
REMARK   51  A    between atoms: _116  and  _118
REMARK   52  A    between atoms: _118  and  _119
REMARK   53  A    between atoms: _118  and  _121
REMARK   54  A    between atoms: _121  and  _122
REMARK   55  A    between atoms: _128  and  _130
REMARK   56  A    between atoms: _130  and  _131
REMARK   57  A    between atoms: _130  and  _133
REMARK   58  A    between atoms: _133  and  _134
REMARK   59  A    between atoms: _134  and  _135
REMARK   60  A    between atoms: _135  and  _136
REMARK   61  A    between atoms: _145  and  _147
REMARK   62  A    between atoms: _147  and  _148
REMARK   63  A    between atoms: _147  and  _150
REMARK   64  A    between atoms: _150  and  _151
REMARK   65  A    between atoms: _156  and  _158
REMARK   66  A    between atoms: _158  and  _159
REMARK   67  A    between atoms: _158  and  _161
REMARK   68  A    between atoms: _161  and  _162
REMARK   69  A    between atoms: _162  and  _163
REMARK   70  A    between atoms: _166  and  _168
REMARK   71  A    between atoms: _168  and  _169
REMARK   72  A    between atoms: _168  and  _171
REMARK   73  A    between atoms: _171  and  _172
REMARK   74  A    between atoms: _172  and  _173
REMARK   75  A    between atoms: _176  and  _178
REMARK   76  A    between atoms: _178  and  _179
REMARK   77  A    between atoms: _178  and  _181
REMARK   78  A    between atoms: _181  and  _182
REMARK   79  A    between atoms: _182  and  _183
REMARK   80  A    between atoms: _185  and  _187
REMARK   81  A    between atoms: _187  and  _188
REMARK   82  A    between atoms: _190  and  _192
REMARK   83  A    between atoms: _192  and  _193
REMARK   84  A    between atoms: _192  and  _195
REMARK   85  A    between atoms: _195  and  _196
REMARK   86  A    between atoms: _196  and  _197
REMARK   87  A    between atoms: _197  and  _198
REMARK   88  A    between atoms: _207  and  _209
REMARK   89  A    between atoms: _209  and  _210
REMARK   90  A    between atoms: _209  and  _212
REMARK   91  A    between atoms: _212  and  _213
REMARK   92  A    between atoms: _218  and  _219
REMARK   93  A    between atoms: _221  and  _223
REMARK   94  A    between atoms: _223  and  _224
REMARK   95  A    between atoms: _223  and  _226
REMARK   96  A    between atoms: _226  and  _227
REMARK   97  A    between atoms: _232  and  _234
REMARK   98  A    between atoms: _234  and  _235
REMARK   99  A    between atoms: _234  and  _237
REMARK  100  A    between atoms: _237  and  _238
REMARK  101  A    between atoms: _244  and  _245
REMARK  102  A    between atoms: _250  and  _252
REMARK  103  A    between atoms: _252  and  _253
REMARK  104  A    between atoms: _252  and  _255
REMARK  105  A    between atoms: _255  and  _256
REMARK  106  A    between atoms: _256  and  _257
REMARK  107  A    between atoms: _260  and  _262
REMARK  108  A    between atoms: _262  and  _263
REMARK  109  A    between atoms: _262  and  _265
REMARK  110  A    between atoms: _265  and  _266
REMARK  111  A    between atoms: _272  and  _274
REMARK  112  A    between atoms: _274  and  _275
REMARK  113  A    between atoms: _274  and  _277
REMARK  114  A    between atoms: _277  and  _278
REMARK  115  A    between atoms: _281  and  _283
REMARK  116  A    between atoms: _283  and  _284
REMARK  117  A    between atoms: _283  and  _286
REMARK  118  A    between atoms: _286  and  _287
REMARK  119  A    between atoms: _287  and  _288
REMARK  120  A    between atoms: _290  and  _292
REMARK  121  A    between atoms: _292  and  _293
REMARK  122  A    between atoms: _292  and  _295
REMARK  123  A    between atoms: _295  and  _296
REMARK  124  A    between atoms: _299  and  _301
REMARK  125  A    between atoms: _301  and  _302
REMARK  126  A    between atoms: _301  and  _304
REMARK  127  A    between atoms: _304  and  _305
REMARK  128  A    between atoms: _305  and  _306
REMARK  129  A    between atoms: _309  and  _311
REMARK  130  A    between atoms: _311  and  _312
REMARK  131  A    between atoms: _311  and  _314
REMARK  132  A    between atoms: _314  and  _315
REMARK  133  A    between atoms: _325  and  _327
REMARK  134  A    between atoms: _327  and  _328
REMARK  135  A    between atoms: _327  and  _330
REMARK  136  A    between atoms: _330  and  _331
REMARK  137  A    between atoms: _336  and  _337
REMARK  138  A    between atoms: _339  and  _341
REMARK  139  A    between atoms: _341  and  _342
REMARK  140  A    between atoms: _341  and  _344
REMARK  141  A    between atoms: _344  and  _345
REMARK  142  A    between atoms: _348  and  _350
REMARK  143  A    between atoms: _350  and  _351
REMARK  144  A    between atoms: _350  and  _353
REMARK  145  A    between atoms: _353  and  _354
REMARK  146  A    between atoms: _356  and  _358
REMARK  147  A    between atoms: _358  and  _359
REMARK  148  A    between atoms: _358  and  _361
REMARK  149  A    between atoms: _361  and  _362
REMARK  150  A    between atoms: _365  and  _367
REMARK  151  A    between atoms: _367  and  _368
REMARK  152  A    between atoms: _371  and  _373
REMARK  153  A    between atoms: _373  and  _374
REMARK  154  A    between atoms: _373  and  _376
REMARK  155  A    between atoms: _376  and  _377
REMARK  156  A    between atoms: _377  and  _378
REMARK  157  A    between atoms: _381  and  _383
REMARK  158  A    between atoms: _383  and  _384
REMARK  159  A    between atoms: _383  and  _386
REMARK  160  A    between atoms: _386  and  _387
REMARK  161  A    between atoms: _387  and  _388
REMARK  162  A    between atoms: _388  and  _389
REMARK  163  A    between atoms: _398  and  _400
REMARK  164  A    between atoms: _400  and  _401
REMARK  165  A    between atoms: _400  and  _403
REMARK  166  A    between atoms: _403  and  _404
REMARK  167  A    between atoms: _410  and  _412
REMARK  168  A    between atoms: _412  and  _413
REMARK  169  A    between atoms: _412  and  _415
REMARK  170  A    between atoms: _415  and  _416
REMARK  171  A    between atoms: _416  and  _417
REMARK  172  A    between atoms: _420  and  _422
REMARK  173  A    between atoms: _422  and  _423
REMARK  174  A    between atoms: _422  and  _425
REMARK  175  A    between atoms: _428  and  _430
REMARK  176  A    between atoms: _430  and  _431
REMARK  177  A    between atoms: _430  and  _433
REMARK  178  A    between atoms: _433  and  _434
REMARK  179  A    between atoms: _439  and  _440
REMARK  180  A    between atoms: _442  and  _444
REMARK  181  A    between atoms: _444  and  _445
REMARK  182  A    between atoms: _444  and  _447
REMARK  183  A    between atoms: _447  and  _448
REMARK  184  A    between atoms: _451  and  _453
REMARK  185  A    between atoms: _453  and  _454
REMARK  186  A    between atoms: _453  and  _456
REMARK  187  A    between atoms: _456  and  _457
REMARK  188  A    between atoms: _457  and  _458
REMARK  189  A    between atoms: _461  and  _463
REMARK  190  A    between atoms: _463  and  _464
REMARK  191  A    between atoms: _463  and  _466
REMARK  192  A    between atoms: _466  and  _467
REMARK  193  A    between atoms: _470  and  _472
REMARK  194  A    between atoms: _472  and  _473
REMARK  195  A    between atoms: _476  and  _478
REMARK  196  A    between atoms: _478  and  _479
REMARK  197  A    between atoms: _478  and  _481
REMARK  198  A    between atoms: _481  and  _482
REMARK  199  A    between atoms: _487  and  _489
REMARK  200  A    between atoms: _489  and  _490
REMARK  201  A    between atoms: _492  and  _494
REMARK  202  A    between atoms: _494  and  _495
REMARK  203  A    between atoms: _494  and  _497
REMARK  204  A    between atoms: _497  and  _498
REMARK  205  A    between atoms: _504  and  _506
REMARK  206  A    between atoms: _506  and  _507
REMARK  207  A    between atoms: _506  and  _509
REMARK  208  A    between atoms: _509  and  _510
REMARK  209  A    between atoms: _515  and  _517
REMARK  210  A    between atoms: _517  and  _518
REMARK  211  A    between atoms: _517  and  _520
REMARK  212  A    between atoms: _520  and  _521
REMARK  213  A    between atoms: _521  and  _522
REMARK  214  A    between atoms: _525  and  _527
REMARK  215  A    between atoms: _527  and  _528
REMARK  216  A    between atoms: _527  and  _530
REMARK  217  A    between atoms: _530  and  _531
REMARK  218  A    between atoms: _534  and  _536
REMARK  219  A    between atoms: _536  and  _537
REMARK  220  A    between atoms: _536  and  _539
REMARK  221  A    between atoms: _541  and  _543
REMARK  222  A    between atoms: _543  and  _544
REMARK  223  A    between atoms: _543  and  _546
REMARK  224  A    between atoms: _546  and  _547
REMARK  225  A    between atoms: _549  and  _551
REMARK  226  A    between atoms: _551  and  _552
REMARK  227  A    between atoms: _554  and  _556
REMARK  228  A    between atoms: _556  and  _557
REMARK  229  A    between atoms: _556  and  _559
REMARK  230  A    between atoms: _562  and  _564
REMARK  231  A    between atoms: _564  and  _565
REMARK  232  A    between atoms: _568  and  _570
REMARK  233  A    between atoms: _570  and  _571
REMARK  234  A    between atoms: _570  and  _573
REMARK  235  A    between atoms: _573  and  _574
REMARK  236  A    between atoms: _577  and  _579
REMARK  237  A    between atoms: _579  and  _580
REMARK  238  A    between atoms: _582  and  _584
REMARK  239  A    between atoms: _584  and  _585
REMARK  240  A    between atoms: _584  and  _587
REMARK  241  A    between atoms: _590  and  _592
REMARK  242  A    between atoms: _592  and  _593
REMARK  243  A    between atoms: _592  and  _595
REMARK  244  A    between atoms: _595  and  _596
REMARK  245  A    between atoms: _599  and  _601
REMARK  246  A    between atoms: _601  and  _602
REMARK  247  A    between atoms: _601  and  _604
REMARK  248  A    between atoms: _604  and  _605
REMARK  249  A    between atoms: _605  and  _606
REMARK  250  A    between atoms: _606  and  _607
REMARK  251  A    between atoms: _616  and  _618
REMARK  252  A    between atoms: _618  and  _619
REMARK  253  A    between atoms: _618  and  _621
REMARK  254  A    between atoms: _621  and  _622
REMARK  255  A    between atoms: _625  and  _627
REMARK  256  A    between atoms: _627  and  _628
REMARK  257  A    between atoms: _627  and  _630
REMARK  258  A    between atoms: _630  and  _631
REMARK  259  A    between atoms: _634  and  _636
REMARK  260  A    between atoms: _636  and  _637
REMARK  261  A    between atoms: _636  and  _639
REMARK  262  A    between atoms: _639  and  _640
REMARK                            x       y       z     vdW  Elec       q    Type
REMARK                         _______ _______ _______ _____ _____    ______ ____
ROOT
ATOM      1  O   HOH     1       2.444   4.558 -16.796  0.00  0.00    +0.000 OA
ENDROOT
TORSDOF 0
REMARK  Name = ../refined-set-2016/3a5y/3a5y_pocket.pdb
REMARK  262 active torsions:
REMARK  status: ('A' for Active; 'I' for Inactive)
REMARK    1  A    between atoms: _1  and  _3
REMARK    2  A    between atoms: _3  and  _4
REMARK    3  A    between atoms: _3  and  _6
REMARK    4  A    between atoms: _9  and  _11
REMARK    5  A    between atoms: _11  and  _12
REMARK    6  A    between atoms: _11  and  _14
REMARK    7  A    between atoms: _14  and  _15
REMARK    8  A    between atoms: _18  and  _20
REMARK    9  A    between atoms: _20  and  _21
REMARK   10  A    between atoms: _20  and  _23
REMARK   11  A    between atoms: _23  and  _24
REMARK   12  A    between atoms: _29  and  _31
REMARK   13  A    between atoms: _31  and  _32
REMARK   14  A    between atoms: _31  and  _34
REMARK   15  A    between atoms: _34  and  _35
REMARK   16  A    between atoms: _38  and  _40
REMARK   17  A    between atoms: _40  and  _41
REMARK   18  A    between atoms: _40  and  _43
REMARK   19  A    between atoms: _43  and  _44
REMARK   20  A    between atoms: _47  and  _49
REMARK   21  A    between atoms: _49  and  _50
REMARK   22  A    between atoms: _49  and  _52
REMARK   23  A    between atoms: _52  and  _53
REMARK   24  A    between atoms: _56  and  _57
REMARK   25  A    between atoms: _62  and  _64
REMARK   26  A    between atoms: _64  and  _65
REMARK   27  A    between atoms: _64  and  _67
REMARK   28  A    between atoms: _67  and  _68
REMARK   29  A    between atoms: _68  and  _69
REMARK   30  A    between atoms: _72  and  _74
REMARK   31  A    between atoms: _74  and  _75
REMARK   32  A    between atoms: _74  and  _77
REMARK   33  A    between atoms: _77  and  _78
REMARK   34  A    between atoms: _83  and  _84
REMARK   35  A    between atoms: _86  and  _88
REMARK   36  A    between atoms: _88  and  _89
REMARK   37  A    between atoms: _88  and  _91
REMARK   38  A    between atoms: _91  and  _92
REMARK   39  A    between atoms: _92  and  _93
REMARK   40  A    between atoms: _95  and  _97
REMARK   41  A    between atoms: _97  and  _98
REMARK   42  A    between atoms: _97  and  _100
REMARK   43  A    between atoms: _100  and  _101
REMARK   44  A    between atoms: _101  and  _102
REMARK   45  A    between atoms: _102  and  _103
REMARK   46  A    between atoms: _103  and  _104
REMARK   47  A    between atoms: _108  and  _110
REMARK   48  A    between atoms: _110  and  _111
REMARK   49  A    between atoms: _110  and  _113
REMARK   50  A    between atoms: _113  and  _114
REMARK   51  A    between atoms: _116  and  _118
REMARK   52  A    between atoms: _118  and  _119
REMARK   53  A    between atoms: _118  and  _121
REMARK   54  A    between atoms: _121  and  _122
REMARK   55  A    between atoms: _128  and  _130
REMARK   56  A    between atoms: _130  and  _131
REMARK   57  A    between atoms: _130  and  _133
REMARK   58  A    between atoms: _133  and  _134
REMARK   59  A    between atoms: _134  and  _135
REMARK   60  A    between atoms: _135  and  _136
REMARK   61  A    between atoms: _145  and  _147
REMARK   62  A    between atoms: _147  and  _148
REMARK   63  A    between atoms: _147  and  _150
REMARK   64  A    between atoms: _150  and  _151
REMARK   65  A    between atoms: _156  and  _158
REMARK   66  A    between atoms: _158  and  _159
REMARK   67  A    between atoms: _158  and  _161
REMARK   68  A    between atoms: _161  and  _162
REMARK   69  A    between atoms: _162  and  _163
REMARK   70  A    between atoms: _166  and  _168
REMARK   71  A    between atoms: _168  and  _169
REMARK   72  A    between atoms: _168  and  _171
REMARK   73  A    between atoms: _171  and  _172
REMARK   74  A    between atoms: _172  and  _173
REMARK   75  A    between atoms: _176  and  _178
REMARK   76  A    between atoms: _178  and  _179
REMARK   77  A    between atoms: _178  and  _181
REMARK   78  A    between atoms: _181  and  _182
REMARK   79  A    between atoms: _182  and  _183
REMARK   80  A    between atoms: _185  and  _187
REMARK   81  A    between atoms: _187  and  _188
REMARK   82  A    between atoms: _190  and  _192
REMARK   83  A    between atoms: _192  and  _193
REMARK   84  A    between atoms: _192  and  _195
REMARK   85  A    between atoms: _195  and  _196
REMARK   86  A    between atoms: _196  and  _197
REMARK   87  A    between atoms: _197  and  _198
REMARK   88  A    between atoms: _207  and  _209
REMARK   89  A    between atoms: _209  and  _210
REMARK   90  A    between atoms: _209  and  _212
REMARK   91  A    between atoms: _212  and  _213
REMARK   92  A    between atoms: _218  and  _219
REMARK   93  A    between atoms: _221  and  _223
REMARK   94  A    between atoms: _223  and  _224
REMARK   95  A    between atoms: _223  and  _226
REMARK   96  A    between atoms: _226  and  _227
REMARK   97  A    between atoms: _232  and  _234
REMARK   98  A    between atoms: _234  and  _235
REMARK   99  A    between atoms: _234  and  _237
REMARK  100  A    between atoms: _237  and  _238
REMARK  101  A    between atoms: _244  and  _245
REMARK  102  A    between atoms: _250  and  _252
REMARK  103  A    between atoms: _252  and  _253
REMARK  104  A    between atoms: _252  and  _255
REMARK  105  A    between atoms: _255  and  _256
REMARK  106  A    between atoms: _256  and  _257
REMARK  107  A    between atoms: _260  and  _262
REMARK  108  A    between atoms: _262  and  _263
REMARK  109  A    between atoms: _262  and  _265
REMARK  110  A    between atoms: _265  and  _266
REMARK  111  A    between atoms: _272  and  _274
REMARK  112  A    between atoms: _274  and  _275
REMARK  113  A    between atoms: _274  and  _277
REMARK  114  A    between atoms: _277  and  _278
REMARK  115  A    between atoms: _281  and  _283
REMARK  116  A    between atoms: _283  and  _284
REMARK  117  A    between atoms: _283  and  _286
REMARK  118  A    between atoms: _286  and  _287
REMARK  119  A    between atoms: _287  and  _288
REMARK  120  A    between atoms: _290  and  _292
REMARK  121  A    between atoms: _292  and  _293
REMARK  122  A    between atoms: _292  and  _295
REMARK  123  A    between atoms: _295  and  _296
REMARK  124  A    between atoms: _299  and  _301
REMARK  125  A    between atoms: _301  and  _302
REMARK  126  A    between atoms: _301  and  _304
REMARK  127  A    between atoms: _304  and  _305
REMARK  128  A    between atoms: _305  and  _306
REMARK  129  A    between atoms: _309  and  _311
REMARK  130  A    between atoms: _311  and  _312
REMARK  131  A    between atoms: _311  and  _314
REMARK  132  A    between atoms: _314  and  _315
REMARK  133  A    between atoms: _325  and  _327
REMARK  134  A    between atoms: _327  and  _328
REMARK  135  A    between atoms: _327  and  _330
REMARK  136  A    between atoms: _330  and  _331
REMARK  137  A    between atoms: _336  and  _337
REMARK  138  A    between atoms: _339  and  _341
REMARK  139  A    between atoms: _341  and  _342
REMARK  140  A    between atoms: _341  and  _344
REMARK  141  A    between atoms: _344  and  _345
REMARK  142  A    between atoms: _348  and  _350
REMARK  143  A    between atoms: _350  and  _351
REMARK  144  A    between atoms: _350  and  _353
REMARK  145  A    between atoms: _353  and  _354
REMARK  146  A    between atoms: _356  and  _358
REMARK  147  A    between atoms: _358  and  _359
REMARK  148  A    between atoms: _358  and  _361
REMARK  149  A    between atoms: _361  and  _362
REMARK  150  A    between atoms: _365  and  _367
REMARK  151  A    between atoms: _367  and  _368
REMARK  152  A    between atoms: _371  and  _373
REMARK  153  A    between atoms: _373  and  _374
REMARK  154  A    between atoms: _373  and  _376
REMARK  155  A    between atoms: _376  and  _377
REMARK  156  A    between atoms: _377  and  _378
REMARK  157  A    between atoms: _381  and  _383
REMARK  158  A    between atoms: _383  and  _384
REMARK  159  A    between atoms: _383  and  _386
REMARK  160  A    between atoms: _386  and  _387
REMARK  161  A    between atoms: _387  and  _388
REMARK  162  A    between atoms: _388  and  _389
REMARK  163  A    between atoms: _398  and  _400
REMARK  164  A    between atoms: _400  and  _401
REMARK  165  A    between atoms: _400  and  _403
REMARK  166  A    between atoms: _403  and  _404
REMARK  167  A    between atoms: _410  and  _412
REMARK  168  A    between atoms: _412  and  _413
REMARK  169  A    between atoms: _412  and  _415
REMARK  170  A    between atoms: _415  and  _416
REMARK  171  A    between atoms: _416  and  _417
REMARK  172  A    between atoms: _420  and  _422
REMARK  173  A    between atoms: _422  and  _423
REMARK  174  A    between atoms: _422  and  _425
REMARK  175  A    between atoms: _428  and  _430
REMARK  176  A    between atoms: _430  and  _431
REMARK  177  A    between atoms: _430  and  _433
REMARK  178  A    between atoms: _433  and  _434
REMARK  179  A    between atoms: _439  and  _440
REMARK  180  A    between atoms: _442  and  _444
REMARK  181  A    between atoms: _444  and  _445
REMARK  182  A    between atoms: _444  and  _447
REMARK  183  A    between atoms: _447  and  _448
REMARK  184  A    between atoms: _451  and  _453
REMARK  185  A    between atoms: _453  and  _454
REMARK  186  A    between atoms: _453  and  _456
REMARK  187  A    between atoms: _456  and  _457
REMARK  188  A    between atoms: _457  and  _458
REMARK  189  A    between atoms: _461  and  _463
REMARK  190  A    between atoms: _463  and  _464
REMARK  191  A    between atoms: _463  and  _466
REMARK  192  A    between atoms: _466  and  _467
REMARK  193  A    between atoms: _470  and  _472
REMARK  194  A    between atoms: _472  and  _473
REMARK  195  A    between atoms: _476  and  _478
REMARK  196  A    between atoms: _478  and  _479
REMARK  197  A    between atoms: _478  and  _481
REMARK  198  A    between atoms: _481  and  _482
REMARK  199  A    between atoms: _487  and  _489
REMARK  200  A    between atoms: _489  and  _490
REMARK  201  A    between atoms: _492  and  _494
REMARK  202  A    between atoms: _494  and  _495
REMARK  203  A    between atoms: _494  and  _497
REMARK  204  A    between atoms: _497  and  _498
REMARK  205  A    between atoms: _504  and  _506
REMARK  206  A    between atoms: _506  and  _507
REMARK  207  A    between atoms: _506  and  _509
REMARK  208  A    between atoms: _509  and  _510
REMARK  209  A    between atoms: _515  and  _517
REMARK  210  A    between atoms: _517  and  _518
REMARK  211  A    between atoms: _517  and  _520
REMARK  212  A    between atoms: _520  and  _521
REMARK  213  A    between atoms: _521  and  _522
REMARK  214  A    between atoms: _525  and  _527
REMARK  215  A    between atoms: _527  and  _528
REMARK  216  A    between atoms: _527  and  _530
REMARK  217  A    between atoms: _530  and  _531
REMARK  218  A    between atoms: _534  and  _536
REMARK  219  A    between atoms: _536  and  _537
REMARK  220  A    between atoms: _536  and  _539
REMARK  221  A    between atoms: _541  and  _543
REMARK  222  A    between atoms: _543  and  _544
REMARK  223  A    between atoms: _543  and  _546
REMARK  224  A    between atoms: _546  and  _547
REMARK  225  A    between atoms: _549  and  _551
REMARK  226  A    between atoms: _551  and  _552
REMARK  227  A    between atoms: _554  and  _556
REMARK  228  A    between atoms: _556  and  _557
REMARK  229  A    between atoms: _556  and  _559
REMARK  230  A    between atoms: _562  and  _564
REMARK  231  A    between atoms: _564  and  _565
REMARK  232  A    between atoms: _568  and  _570
REMARK  233  A    between atoms: _570  and  _571
REMARK  234  A    between atoms: _570  and  _573
REMARK  235  A    between atoms: _573  and  _574
REMARK  236  A    between atoms: _577  and  _579
REMARK  237  A    between atoms: _579  and  _580
REMARK  238  A    between atoms: _582  and  _584
REMARK  239  A    between atoms: _584  and  _585
REMARK  240  A    between atoms: _584  and  _587
REMARK  241  A    between atoms: _590  and  _592
REMARK  242  A    between atoms: _592  and  _593
REMARK  243  A    between atoms: _592  and  _595
REMARK  244  A    between atoms: _595  and  _596
REMARK  245  A    between atoms: _599  and  _601
REMARK  246  A    between atoms: _601  and  _602
REMARK  247  A    between atoms: _601  and  _604
REMARK  248  A    between atoms: _604  and  _605
REMARK  249  A    between atoms: _605  and  _606
REMARK  250  A    between atoms: _606  and  _607
REMARK  251  A    between atoms: _616  and  _618
REMARK  252  A    between atoms: _618  and  _619
REMARK  253  A    between atoms: _618  and  _621
REMARK  254  A    between atoms: _621  and  _622
REMARK  255  A    between atoms: _625  and  _627
REMARK  256  A    between atoms: _627  and  _628
REMARK  257  A    between atoms: _627  and  _630
REMARK  258  A    between atoms: _630  and  _631
REMARK  259  A    between atoms: _634  and  _636
REMARK  260  A    between atoms: _636  and  _637
REMARK  261  A    between atoms: _636  and  _639
REMARK  262  A    between atoms: _639  and  _640
REMARK                            x       y       z     vdW  Elec       q    Type
REMARK                         _______ _______ _______ _____ _____    ______ ____
ROOT
ATOM      1  O   HOH     1       3.052   8.208  -7.672  0.00  0.00    +0.000 OA
ENDROOT
TORSDOF 0
REMARK  Name = ../refined-set-2016/3a5y/3a5y_pocket.pdb
REMARK  262 active torsions:
REMARK  status: ('A' for Active; 'I' for Inactive)
REMARK    1  A    between atoms: _1  and  _3
REMARK    2  A    between atoms: _3  and  _4
REMARK    3  A    between atoms: _3  and  _6
REMARK    4  A    between atoms: _9  and  _11
REMARK    5  A    between atoms: _11  and  _12
REMARK    6  A    between atoms: _11  and  _14
REMARK    7  A    between atoms: _14  and  _15
REMARK    8  A    between atoms: _18  and  _20
REMARK    9  A    between atoms: _20  and  _21
REMARK   10  A    between atoms: _20  and  _23
REMARK   11  A    between atoms: _23  and  _24
REMARK   12  A    between atoms: _29  and  _31
REMARK   13  A    between atoms: _31  and  _32
REMARK   14  A    between atoms: _31  and  _34
REMARK   15  A    between atoms: _34  and  _35
REMARK   16  A    between atoms: _38  and  _40
REMARK   17  A    between atoms: _40  and  _41
REMARK   18  A    between atoms: _40  and  _43
REMARK   19  A    between atoms: _43  and  _44
REMARK   20  A    between atoms: _47  and  _49
REMARK   21  A    between atoms: _49  and  _50
REMARK   22  A    between atoms: _49  and  _52
REMARK   23  A    between atoms: _52  and  _53
REMARK   24  A    between atoms: _56  and  _57
REMARK   25  A    between atoms: _62  and  _64
REMARK   26  A    between atoms: _64  and  _65
REMARK   27  A    between atoms: _64  and  _67
REMARK   28  A    between atoms: _67  and  _68
REMARK   29  A    between atoms: _68  and  _69
REMARK   30  A    between atoms: _72  and  _74
REMARK   31  A    between atoms: _74  and  _75
REMARK   32  A    between atoms: _74  and  _77
REMARK   33  A    between atoms: _77  and  _78
REMARK   34  A    between atoms: _83  and  _84
REMARK   35  A    between atoms: _86  and  _88
REMARK   36  A    between atoms: _88  and  _89
REMARK   37  A    between atoms: _88  and  _91
REMARK   38  A    between atoms: _91  and  _92
REMARK   39  A    between atoms: _92  and  _93
REMARK   40  A    between atoms: _95  and  _97
REMARK   41  A    between atoms: _97  and  _98
REMARK   42  A    between atoms: _97  and  _100
REMARK   43  A    between atoms: _100  and  _101
REMARK   44  A    between atoms: _101  and  _102
REMARK   45  A    between atoms: _102  and  _103
REMARK   46  A    between atoms: _103  and  _104
REMARK   47  A    between atoms: _108  and  _110
REMARK   48  A    between atoms: _110  and  _111
REMARK   49  A    between atoms: _110  and  _113
REMARK   50  A    between atoms: _113  and  _114
REMARK   51  A    between atoms: _116  and  _118
REMARK   52  A    between atoms: _118  and  _119
REMARK   53  A    between atoms: _118  and  _121
REMARK   54  A    between atoms: _121  and  _122
REMARK   55  A    between atoms: _128  and  _130
REMARK   56  A    between atoms: _130  and  _131
REMARK   57  A    between atoms: _130  and  _133
REMARK   58  A    between atoms: _133  and  _134
REMARK   59  A    between atoms: _134  and  _135
REMARK   60  A    between atoms: _135  and  _136
REMARK   61  A    between atoms: _145  and  _147
REMARK   62  A    between atoms: _147  and  _148
REMARK   63  A    between atoms: _147  and  _150
REMARK   64  A    between atoms: _150  and  _151
REMARK   65  A    between atoms: _156  and  _158
REMARK   66  A    between atoms: _158  and  _159
REMARK   67  A    between atoms: _158  and  _161
REMARK   68  A    between atoms: _161  and  _162
REMARK   69  A    between atoms: _162  and  _163
REMARK   70  A    between atoms: _166  and  _168
REMARK   71  A    between atoms: _168  and  _169
REMARK   72  A    between atoms: _168  and  _171
REMARK   73  A    between atoms: _171  and  _172
REMARK   74  A    between atoms: _172  and  _173
REMARK   75  A    between atoms: _176  and  _178
REMARK   76  A    between atoms: _178  and  _179
REMARK   77  A    between atoms: _178  and  _181
REMARK   78  A    between atoms: _181  and  _182
REMARK   79  A    between atoms: _182  and  _183
REMARK   80  A    between atoms: _185  and  _187
REMARK   81  A    between atoms: _187  and  _188
REMARK   82  A    between atoms: _190  and  _192
REMARK   83  A    between atoms: _192  and  _193
REMARK   84  A    between atoms: _192  and  _195
REMARK   85  A    between atoms: _195  and  _196
REMARK   86  A    between atoms: _196  and  _197
REMARK   87  A    between atoms: _197  and  _198
REMARK   88  A    between atoms: _207  and  _209
REMARK   89  A    between atoms: _209  and  _210
REMARK   90  A    between atoms: _209  and  _212
REMARK   91  A    between atoms: _212  and  _213
REMARK   92  A    between atoms: _218  and  _219
REMARK   93  A    between atoms: _221  and  _223
REMARK   94  A    between atoms: _223  and  _224
REMARK   95  A    between atoms: _223  and  _226
REMARK   96  A    between atoms: _226  and  _227
REMARK   97  A    between atoms: _232  and  _234
REMARK   98  A    between atoms: _234  and  _235
REMARK   99  A    between atoms: _234  and  _237
REMARK  100  A    between atoms: _237  and  _238
REMARK  101  A    between atoms: _244  and  _245
REMARK  102  A    between atoms: _250  and  _252
REMARK  103  A    between atoms: _252  and  _253
REMARK  104  A    between atoms: _252  and  _255
REMARK  105  A    between atoms: _255  and  _256
REMARK  106  A    between atoms: _256  and  _257
REMARK  107  A    between atoms: _260  and  _262
REMARK  108  A    between atoms: _262  and  _263
REMARK  109  A    between atoms: _262  and  _265
REMARK  110  A    between atoms: _265  and  _266
REMARK  111  A    between atoms: _272  and  _274
REMARK  112  A    between atoms: _274  and  _275
REMARK  113  A    between atoms: _274  and  _277
REMARK  114  A    between atoms: _277  and  _278
REMARK  115  A    between atoms: _281  and  _283
REMARK  116  A    between atoms: _283  and  _284
REMARK  117  A    between atoms: _283  and  _286
REMARK  118  A    between atoms: _286  and  _287
REMARK  119  A    between atoms: _287  and  _288
REMARK  120  A    between atoms: _290  and  _292
REMARK  121  A    between atoms: _292  and  _293
REMARK  122  A    between atoms: _292  and  _295
REMARK  123  A    between atoms: _295  and  _296
REMARK  124  A    between atoms: _299  and  _301
REMARK  125  A    between atoms: _301  and  _302
REMARK  126  A    between atoms: _301  and  _304
REMARK  127  A    between atoms: _304  and  _305
REMARK  128  A    between atoms: _305  and  _306
REMARK  129  A    between atoms: _309  and  _311
REMARK  130  A    between atoms: _311  and  _312
REMARK  131  A    between atoms: _311  and  _314
REMARK  132  A    between atoms: _314  and  _315
REMARK  133  A    between atoms: _325  and  _327
REMARK  134  A    between atoms: _327  and  _328
REMARK  135  A    between atoms: _327  and  _330
REMARK  136  A    between atoms: _330  and  _331
REMARK  137  A    between atoms: _336  and  _337
REMARK  138  A    between atoms: _339  and  _341
REMARK  139  A    between atoms: _341  and  _342
REMARK  140  A    between atoms: _341  and  _344
REMARK  141  A    between atoms: _344  and  _345
REMARK  142  A    between atoms: _348  and  _350
REMARK  143  A    between atoms: _350  and  _351
REMARK  144  A    between atoms: _350  and  _353
REMARK  145  A    between atoms: _353  and  _354
REMARK  146  A    between atoms: _356  and  _358
REMARK  147  A    between atoms: _358  and  _359
REMARK  148  A    between atoms: _358  and  _361
REMARK  149  A    between atoms: _361  and  _362
REMARK  150  A    between atoms: _365  and  _367
REMARK  151  A    between atoms: _367  and  _368
REMARK  152  A    between atoms: _371  and  _373
REMARK  153  A    between atoms: _373  and  _374
REMARK  154  A    between atoms: _373  and  _376
REMARK  155  A    between atoms: _376  and  _377
REMARK  156  A    between atoms: _377  and  _378
REMARK  157  A    between atoms: _381  and  _383
REMARK  158  A    between atoms: _383  and  _384
REMARK  159  A    between atoms: _383  and  _386
REMARK  160  A    between atoms: _386  and  _387
REMARK  161  A    between atoms: _387  and  _388
REMARK  162  A    between atoms: _388  and  _389
REMARK  163  A    between atoms: _398  and  _400
REMARK  164  A    between atoms: _400  and  _401
REMARK  165  A    between atoms: _400  and  _403
REMARK  166  A    between atoms: _403  and  _404
REMARK  167  A    between atoms: _410  and  _412
REMARK  168  A    between atoms: _412  and  _413
REMARK  169  A    between atoms: _412  and  _415
REMARK  170  A    between atoms: _415  and  _416
REMARK  171  A    between atoms: _416  and  _417
REMARK  172  A    between atoms: _420  and  _422
REMARK  173  A    between atoms: _422  and  _423
REMARK  174  A    between atoms: _422  and  _425
REMARK  175  A    between atoms: _428  and  _430
REMARK  176  A    between atoms: _430  and  _431
REMARK  177  A    between atoms: _430  and  _433
REMARK  178  A    between atoms: _433  and  _434
REMARK  179  A    between atoms: _439  and  _440
REMARK  180  A    between atoms: _442  and  _444
REMARK  181  A    between atoms: _444  and  _445
REMARK  182  A    between atoms: _444  and  _447
REMARK  183  A    between atoms: _447  and  _448
REMARK  184  A    between atoms: _451  and  _453
REMARK  185  A    between atoms: _453  and  _454
REMARK  186  A    between atoms: _453  and  _456
REMARK  187  A    between atoms: _456  and  _457
REMARK  188  A    between atoms: _457  and  _458
REMARK  189  A    between atoms: _461  and  _463
REMARK  190  A    between atoms: _463  and  _464
REMARK  191  A    between atoms: _463  and  _466
REMARK  192  A    between atoms: _466  and  _467
REMARK  193  A    between atoms: _470  and  _472
REMARK  194  A    between atoms: _472  and  _473
REMARK  195  A    between atoms: _476  and  _478
REMARK  196  A    between atoms: _478  and  _479
REMARK  197  A    between atoms: _478  and  _481
REMARK  198  A    between atoms: _481  and  _482
REMARK  199  A    between atoms: _487  and  _489
REMARK  200  A    between atoms: _489  and  _490
REMARK  201  A    between atoms: _492  and  _494
REMARK  202  A    between atoms: _494  and  _495
REMARK  203  A    between atoms: _494  and  _497
REMARK  204  A    between atoms: _497  and  _498
REMARK  205  A    between atoms: _504  and  _506
REMARK  206  A    between atoms: _506  and  _507
REMARK  207  A    between atoms: _506  and  _509
REMARK  208  A    between atoms: _509  and  _510
REMARK  209  A    between atoms: _515  and  _517
REMARK  210  A    between atoms: _517  and  _518
REMARK  211  A    between atoms: _517  and  _520
REMARK  212  A    between atoms: _520  and  _521
REMARK  213  A    between atoms: _521  and  _522
REMARK  214  A    between atoms: _525  and  _527
REMARK  215  A    between atoms: _527  and  _528
REMARK  216  A    between atoms: _527  and  _530
REMARK  217  A    between atoms: _530  and  _531
REMARK  218  A    between atoms: _534  and  _536
REMARK  219  A    between atoms: _536  and  _537
REMARK  220  A    between atoms: _536  and  _539
REMARK  221  A    between atoms: _541  and  _543
REMARK  222  A    between atoms: _543  and  _544
REMARK  223  A    between atoms: _543  and  _546
REMARK  224  A    between atoms: _546  and  _547
REMARK  225  A    between atoms: _549  and  _551
REMARK  226  A    between atoms: _551  and  _552
REMARK  227  A    between atoms: _554  and  _556
REMARK  228  A    between atoms: _556  and  _557
REMARK  229  A    between atoms: _556  and  _559
REMARK  230  A    between atoms: _562  and  _564
REMARK  231  A    between atoms: _564  and  _565
REMARK  232  A    between atoms: _568  and  _570
REMARK  233  A    between atoms: _570  and  _571
REMARK  234  A    between atoms: _570  and  _573
REMARK  235  A    between atoms: _573  and  _574
REMARK  236  A    between atoms: _577  and  _579
REMARK  237  A    between atoms: _579  and  _580
REMARK  238  A    between atoms: _582  and  _584
REMARK  239  A    between atoms: _584  and  _585
REMARK  240  A    between atoms: _584  and  _587
REMARK  241  A    between atoms: _590  and  _592
REMARK  242  A    between atoms: _592  and  _593
REMARK  243  A    between atoms: _592  and  _595
REMARK  244  A    between atoms: _595  and  _596
REMARK  245  A    between atoms: _599  and  _601
REMARK  246  A    between atoms: _601  and  _602
REMARK  247  A    between atoms: _601  and  _604
REMARK  248  A    between atoms: _604  and  _605
REMARK  249  A    between atoms: _605  and  _606
REMARK  250  A    between atoms: _606  and  _607
REMARK  251  A    between atoms: _616  and  _618
REMARK  252  A    between atoms: _618  and  _619
REMARK  253  A    between atoms: _618  and  _621
REMARK  254  A    between atoms: _621  and  _622
REMARK  255  A    between atoms: _625  and  _627
REMARK  256  A    between atoms: _627  and  _628
REMARK  257  A    between atoms: _627  and  _630
REMARK  258  A    between atoms: _630  and  _631
REMARK  259  A    between atoms: _634  and  _636
REMARK  260  A    between atoms: _636  and  _637
REMARK  261  A    between atoms: _636  and  _639
REMARK  262  A    between atoms: _639  and  _640
REMARK                            x       y       z     vdW  Elec       q    Type
REMARK                         _______ _______ _______ _____ _____    ______ ____
ROOT
ATOM      1  O   HOH     1       1.255   4.654  -8.564  0.00  0.00    +0.000 OA
ENDROOT
TORSDOF 0
REMARK  Name = ../refined-set-2016/3a5y/3a5y_pocket.pdb
REMARK  262 active torsions:
REMARK  status: ('A' for Active; 'I' for Inactive)
REMARK    1  A    between atoms: _1  and  _3
REMARK    2  A    between atoms: _3  and  _4
REMARK    3  A    between atoms: _3  and  _6
REMARK    4  A    between atoms: _9  and  _11
REMARK    5  A    between atoms: _11  and  _12
REMARK    6  A    between atoms: _11  and  _14
REMARK    7  A    between atoms: _14  and  _15
REMARK    8  A    between atoms: _18  and  _20
REMARK    9  A    between atoms: _20  and  _21
REMARK   10  A    between atoms: _20  and  _23
REMARK   11  A    between atoms: _23  and  _24
REMARK   12  A    between atoms: _29  and  _31
REMARK   13  A    between atoms: _31  and  _32
REMARK   14  A    between atoms: _31  and  _34
REMARK   15  A    between atoms: _34  and  _35
REMARK   16  A    between atoms: _38  and  _40
REMARK   17  A    between atoms: _40  and  _41
REMARK   18  A    between atoms: _40  and  _43
REMARK   19  A    between atoms: _43  and  _44
REMARK   20  A    between atoms: _47  and  _49
REMARK   21  A    between atoms: _49  and  _50
REMARK   22  A    between atoms: _49  and  _52
REMARK   23  A    between atoms: _52  and  _53
REMARK   24  A    between atoms: _56  and  _57
REMARK   25  A    between atoms: _62  and  _64
REMARK   26  A    between atoms: _64  and  _65
REMARK   27  A    between atoms: _64  and  _67
REMARK   28  A    between atoms: _67  and  _68
REMARK   29  A    between atoms: _68  and  _69
REMARK   30  A    between atoms: _72  and  _74
REMARK   31  A    between atoms: _74  and  _75
REMARK   32  A    between atoms: _74  and  _77
REMARK   33  A    between atoms: _77  and  _78
REMARK   34  A    between atoms: _83  and  _84
REMARK   35  A    between atoms: _86  and  _88
REMARK   36  A    between atoms: _88  and  _89
REMARK   37  A    between atoms: _88  and  _91
REMARK   38  A    between atoms: _91  and  _92
REMARK   39  A    between atoms: _92  and  _93
REMARK   40  A    between atoms: _95  and  _97
REMARK   41  A    between atoms: _97  and  _98
REMARK   42  A    between atoms: _97  and  _100
REMARK   43  A    between atoms: _100  and  _101
REMARK   44  A    between atoms: _101  and  _102
REMARK   45  A    between atoms: _102  and  _103
REMARK   46  A    between atoms: _103  and  _104
REMARK   47  A    between atoms: _108  and  _110
REMARK   48  A    between atoms: _110  and  _111
REMARK   49  A    between atoms: _110  and  _113
REMARK   50  A    between atoms: _113  and  _114
REMARK   51  A    between atoms: _116  and  _118
REMARK   52  A    between atoms: _118  and  _119
REMARK   53  A    between atoms: _118  and  _121
REMARK   54  A    between atoms: _121  and  _122
REMARK   55  A    between atoms: _128  and  _130
REMARK   56  A    between atoms: _130  and  _131
REMARK   57  A    between atoms: _130  and  _133
REMARK   58  A    between atoms: _133  and  _134
REMARK   59  A    between atoms: _134  and  _135
REMARK   60  A    between atoms: _135  and  _136
REMARK   61  A    between atoms: _145  and  _147
REMARK   62  A    between atoms: _147  and  _148
REMARK   63  A    between atoms: _147  and  _150
REMARK   64  A    between atoms: _150  and  _151
REMARK   65  A    between atoms: _156  and  _158
REMARK   66  A    between atoms: _158  and  _159
REMARK   67  A    between atoms: _158  and  _161
REMARK   68  A    between atoms: _161  and  _162
REMARK   69  A    between atoms: _162  and  _163
REMARK   70  A    between atoms: _166  and  _168
REMARK   71  A    between atoms: _168  and  _169
REMARK   72  A    between atoms: _168  and  _171
REMARK   73  A    between atoms: _171  and  _172
REMARK   74  A    between atoms: _172  and  _173
REMARK   75  A    between atoms: _176  and  _178
REMARK   76  A    between atoms: _178  and  _179
REMARK   77  A    between atoms: _178  and  _181
REMARK   78  A    between atoms: _181  and  _182
REMARK   79  A    between atoms: _182  and  _183
REMARK   80  A    between atoms: _185  and  _187
REMARK   81  A    between atoms: _187  and  _188
REMARK   82  A    between atoms: _190  and  _192
REMARK   83  A    between atoms: _192  and  _193
REMARK   84  A    between atoms: _192  and  _195
REMARK   85  A    between atoms: _195  and  _196
REMARK   86  A    between atoms: _196  and  _197
REMARK   87  A    between atoms: _197  and  _198
REMARK   88  A    between atoms: _207  and  _209
REMARK   89  A    between atoms: _209  and  _210
REMARK   90  A    between atoms: _209  and  _212
REMARK   91  A    between atoms: _212  and  _213
REMARK   92  A    between atoms: _218  and  _219
REMARK   93  A    between atoms: _221  and  _223
REMARK   94  A    between atoms: _223  and  _224
REMARK   95  A    between atoms: _223  and  _226
REMARK   96  A    between atoms: _226  and  _227
REMARK   97  A    between atoms: _232  and  _234
REMARK   98  A    between atoms: _234  and  _235
REMARK   99  A    between atoms: _234  and  _237
REMARK  100  A    between atoms: _237  and  _238
REMARK  101  A    between atoms: _244  and  _245
REMARK  102  A    between atoms: _250  and  _252
REMARK  103  A    between atoms: _252  and  _253
REMARK  104  A    between atoms: _252  and  _255
REMARK  105  A    between atoms: _255  and  _256
REMARK  106  A    between atoms: _256  and  _257
REMARK  107  A    between atoms: _260  and  _262
REMARK  108  A    between atoms: _262  and  _263
REMARK  109  A    between atoms: _262  and  _265
REMARK  110  A    between atoms: _265  and  _266
REMARK  111  A    between atoms: _272  and  _274
REMARK  112  A    between atoms: _274  and  _275
REMARK  113  A    between atoms: _274  and  _277
REMARK  114  A    between atoms: _277  and  _278
REMARK  115  A    between atoms: _281  and  _283
REMARK  116  A    between atoms: _283  and  _284
REMARK  117  A    between atoms: _283  and  _286
REMARK  118  A    between atoms: _286  and  _287
REMARK  119  A    between atoms: _287  and  _288
REMARK  120  A    between atoms: _290  and  _292
REMARK  121  A    between atoms: _292  and  _293
REMARK  122  A    between atoms: _292  and  _295
REMARK  123  A    between atoms: _295  and  _296
REMARK  124  A    between atoms: _299  and  _301
REMARK  125  A    between atoms: _301  and  _302
REMARK  126  A    between atoms: _301  and  _304
REMARK  127  A    between atoms: _304  and  _305
REMARK  128  A    between atoms: _305  and  _306
REMARK  129  A    between atoms: _309  and  _311
REMARK  130  A    between atoms: _311  and  _312
REMARK  131  A    between atoms: _311  and  _314
REMARK  132  A    between atoms: _314  and  _315
REMARK  133  A    between atoms: _325  and  _327
REMARK  134  A    between atoms: _327  and  _328
REMARK  135  A    between atoms: _327  and  _330
REMARK  136  A    between atoms: _330  and  _331
REMARK  137  A    between atoms: _336  and  _337
REMARK  138  A    between atoms: _339  and  _341
REMARK  139  A    between atoms: _341  and  _342
REMARK  140  A    between atoms: _341  and  _344
REMARK  141  A    between atoms: _344  and  _345
REMARK  142  A    between atoms: _348  and  _350
REMARK  143  A    between atoms: _350  and  _351
REMARK  144  A    between atoms: _350  and  _353
REMARK  145  A    between atoms: _353  and  _354
REMARK  146  A    between atoms: _356  and  _358
REMARK  147  A    between atoms: _358  and  _359
REMARK  148  A    between atoms: _358  and  _361
REMARK  149  A    between atoms: _361  and  _362
REMARK  150  A    between atoms: _365  and  _367
REMARK  151  A    between atoms: _367  and  _368
REMARK  152  A    between atoms: _371  and  _373
REMARK  153  A    between atoms: _373  and  _374
REMARK  154  A    between atoms: _373  and  _376
REMARK  155  A    between atoms: _376  and  _377
REMARK  156  A    between atoms: _377  and  _378
REMARK  157  A    between atoms: _381  and  _383
REMARK  158  A    between atoms: _383  and  _384
REMARK  159  A    between atoms: _383  and  _386
REMARK  160  A    between atoms: _386  and  _387
REMARK  161  A    between atoms: _387  and  _388
REMARK  162  A    between atoms: _388  and  _389
REMARK  163  A    between atoms: _398  and  _400
REMARK  164  A    between atoms: _400  and  _401
REMARK  165  A    between atoms: _400  and  _403
REMARK  166  A    between atoms: _403  and  _404
REMARK  167  A    between atoms: _410  and  _412
REMARK  168  A    between atoms: _412  and  _413
REMARK  169  A    between atoms: _412  and  _415
REMARK  170  A    between atoms: _415  and  _416
REMARK  171  A    between atoms: _416  and  _417
REMARK  172  A    between atoms: _420  and  _422
REMARK  173  A    between atoms: _422  and  _423
REMARK  174  A    between atoms: _422  and  _425
REMARK  175  A    between atoms: _428  and  _430
REMARK  176  A    between atoms: _430  and  _431
REMARK  177  A    between atoms: _430  and  _433
REMARK  178  A    between atoms: _433  and  _434
REMARK  179  A    between atoms: _439  and  _440
REMARK  180  A    between atoms: _442  and  _444
REMARK  181  A    between atoms: _444  and  _445
REMARK  182  A    between atoms: _444  and  _447
REMARK  183  A    between atoms: _447  and  _448
REMARK  184  A    between atoms: _451  and  _453
REMARK  185  A    between atoms: _453  and  _454
REMARK  186  A    between atoms: _453  and  _456
REMARK  187  A    between atoms: _456  and  _457
REMARK  188  A    between atoms: _457  and  _458
REMARK  189  A    between atoms: _461  and  _463
REMARK  190  A    between atoms: _463  and  _464
REMARK  191  A    between atoms: _463  and  _466
REMARK  192  A    between atoms: _466  and  _467
REMARK  193  A    between atoms: _470  and  _472
REMARK  194  A    between atoms: _472  and  _473
REMARK  195  A    between atoms: _476  and  _478
REMARK  196  A    between atoms: _478  and  _479
REMARK  197  A    between atoms: _478  and  _481
REMARK  198  A    between atoms: _481  and  _482
REMARK  199  A    between atoms: _487  and  _489
REMARK  200  A    between atoms: _489  and  _490
REMARK  201  A    between atoms: _492  and  _494
REMARK  202  A    between atoms: _494  and  _495
REMARK  203  A    between atoms: _494  and  _497
REMARK  204  A    between atoms: _497  and  _498
REMARK  205  A    between atoms: _504  and  _506
REMARK  206  A    between atoms: _506  and  _507
REMARK  207  A    between atoms: _506  and  _509
REMARK  208  A    between atoms: _509  and  _510
REMARK  209  A    between atoms: _515  and  _517
REMARK  210  A    between atoms: _517  and  _518
REMARK  211  A    between atoms: _517  and  _520
REMARK  212  A    between atoms: _520  and  _521
REMARK  213  A    between atoms: _521  and  _522
REMARK  214  A    between atoms: _525  and  _527
REMARK  215  A    between atoms: _527  and  _528
REMARK  216  A    between atoms: _527  and  _530
REMARK  217  A    between atoms: _530  and  _531
REMARK  218  A    between atoms: _534  and  _536
REMARK  219  A    between atoms: _536  and  _537
REMARK  220  A    between atoms: _536  and  _539
REMARK  221  A    between atoms: _541  and  _543
REMARK  222  A    between atoms: _543  and  _544
REMARK  223  A    between atoms: _543  and  _546
REMARK  224  A    between atoms: _546  and  _547
REMARK  225  A    between atoms: _549  and  _551
REMARK  226  A    between atoms: _551  and  _552
REMARK  227  A    between atoms: _554  and  _556
REMARK  228  A    between atoms: _556  and  _557
REMARK  229  A    between atoms: _556  and  _559
REMARK  230  A    between atoms: _562  and  _564
REMARK  231  A    between atoms: _564  and  _565
REMARK  232  A    between atoms: _568  and  _570
REMARK  233  A    between atoms: _570  and  _571
REMARK  234  A    between atoms: _570  and  _573
REMARK  235  A    between atoms: _573  and  _574
REMARK  236  A    between atoms: _577  and  _579
REMARK  237  A    between atoms: _579  and  _580
REMARK  238  A    between atoms: _582  and  _584
REMARK  239  A    between atoms: _584  and  _585
REMARK  240  A    between atoms: _584  and  _587
REMARK  241  A    between atoms: _590  and  _592
REMARK  242  A    between atoms: _592  and  _593
REMARK  243  A    between atoms: _592  and  _595
REMARK  244  A    between atoms: _595  and  _596
REMARK  245  A    between atoms: _599  and  _601
REMARK  246  A    between atoms: _601  and  _602
REMARK  247  A    between atoms: _601  and  _604
REMARK  248  A    between atoms: _604  and  _605
REMARK  249  A    between atoms: _605  and  _606
REMARK  250  A    between atoms: _606  and  _607
REMARK  251  A    between atoms: _616  and  _618
REMARK  252  A    between atoms: _618  and  _619
REMARK  253  A    between atoms: _618  and  _621
REMARK  254  A    between atoms: _621  and  _622
REMARK  255  A    between atoms: _625  and  _627
REMARK  256  A    between atoms: _627  and  _628
REMARK  257  A    between atoms: _627  and  _630
REMARK  258  A    between atoms: _630  and  _631
REMARK  259  A    between atoms: _634  and  _636
REMARK  260  A    between atoms: _636  and  _637
REMARK  261  A    between atoms: _636  and  _639
REMARK  262  A    between atoms: _639  and  _640
REMARK                            x       y       z     vdW  Elec       q    Type
REMARK                         _______ _______ _______ _____ _____    ______ ____
ROOT
ATOM      1  O   HOH     1      -0.656   2.936 -10.742  0.00  0.00    +0.000 OA
ENDROOT
TORSDOF 0
REMARK  Name = ../refined-set-2016/3a5y/3a5y_pocket.pdb
REMARK  262 active torsions:
REMARK  status: ('A' for Active; 'I' for Inactive)
REMARK    1  A    between atoms: _1  and  _3
REMARK    2  A    between atoms: _3  and  _4
REMARK    3  A    between atoms: _3  and  _6
REMARK    4  A    between atoms: _9  and  _11
REMARK    5  A    between atoms: _11  and  _12
REMARK    6  A    between atoms: _11  and  _14
REMARK    7  A    between atoms: _14  and  _15
REMARK    8  A    between atoms: _18  and  _20
REMARK    9  A    between atoms: _20  and  _21
REMARK   10  A    between atoms: _20  and  _23
REMARK   11  A    between atoms: _23  and  _24
REMARK   12  A    between atoms: _29  and  _31
REMARK   13  A    between atoms: _31  and  _32
REMARK   14  A    between atoms: _31  and  _34
REMARK   15  A    between atoms: _34  and  _35
REMARK   16  A    between atoms: _38  and  _40
REMARK   17  A    between atoms: _40  and  _41
REMARK   18  A    between atoms: _40  and  _43
REMARK   19  A    between atoms: _43  and  _44
REMARK   20  A    between atoms: _47  and  _49
REMARK   21  A    between atoms: _49  and  _50
REMARK   22  A    between atoms: _49  and  _52
REMARK   23  A    between atoms: _52  and  _53
REMARK   24  A    between atoms: _56  and  _57
REMARK   25  A    between atoms: _62  and  _64
REMARK   26  A    between atoms: _64  and  _65
REMARK   27  A    between atoms: _64  and  _67
REMARK   28  A    between atoms: _67  and  _68
REMARK   29  A    between atoms: _68  and  _69
REMARK   30  A    between atoms: _72  and  _74
REMARK   31  A    between atoms: _74  and  _75
REMARK   32  A    between atoms: _74  and  _77
REMARK   33  A    between atoms: _77  and  _78
REMARK   34  A    between atoms: _83  and  _84
REMARK   35  A    between atoms: _86  and  _88
REMARK   36  A    between atoms: _88  and  _89
REMARK   37  A    between atoms: _88  and  _91
REMARK   38  A    between atoms: _91  and  _92
REMARK   39  A    between atoms: _92  and  _93
REMARK   40  A    between atoms: _95  and  _97
REMARK   41  A    between atoms: _97  and  _98
REMARK   42  A    between atoms: _97  and  _100
REMARK   43  A    between atoms: _100  and  _101
REMARK   44  A    between atoms: _101  and  _102
REMARK   45  A    between atoms: _102  and  _103
REMARK   46  A    between atoms: _103  and  _104
REMARK   47  A    between atoms: _108  and  _110
REMARK   48  A    between atoms: _110  and  _111
REMARK   49  A    between atoms: _110  and  _113
REMARK   50  A    between atoms: _113  and  _114
REMARK   51  A    between atoms: _116  and  _118
REMARK   52  A    between atoms: _118  and  _119
REMARK   53  A    between atoms: _118  and  _121
REMARK   54  A    between atoms: _121  and  _122
REMARK   55  A    between atoms: _128  and  _130
REMARK   56  A    between atoms: _130  and  _131
REMARK   57  A    between atoms: _130  and  _133
REMARK   58  A    between atoms: _133  and  _134
REMARK   59  A    between atoms: _134  and  _135
REMARK   60  A    between atoms: _135  and  _136
REMARK   61  A    between atoms: _145  and  _147
REMARK   62  A    between atoms: _147  and  _148
REMARK   63  A    between atoms: _147  and  _150
REMARK   64  A    between atoms: _150  and  _151
REMARK   65  A    between atoms: _156  and  _158
REMARK   66  A    between atoms: _158  and  _159
REMARK   67  A    between atoms: _158  and  _161
REMARK   68  A    between atoms: _161  and  _162
REMARK   69  A    between atoms: _162  and  _163
REMARK   70  A    between atoms: _166  and  _168
REMARK   71  A    between atoms: _168  and  _169
REMARK   72  A    between atoms: _168  and  _171
REMARK   73  A    between atoms: _171  and  _172
REMARK   74  A    between atoms: _172  and  _173
REMARK   75  A    between atoms: _176  and  _178
REMARK   76  A    between atoms: _178  and  _179
REMARK   77  A    between atoms: _178  and  _181
REMARK   78  A    between atoms: _181  and  _182
REMARK   79  A    between atoms: _182  and  _183
REMARK   80  A    between atoms: _185  and  _187
REMARK   81  A    between atoms: _187  and  _188
REMARK   82  A    between atoms: _190  and  _192
REMARK   83  A    between atoms: _192  and  _193
REMARK   84  A    between atoms: _192  and  _195
REMARK   85  A    between atoms: _195  and  _196
REMARK   86  A    between atoms: _196  and  _197
REMARK   87  A    between atoms: _197  and  _198
REMARK   88  A    between atoms: _207  and  _209
REMARK   89  A    between atoms: _209  and  _210
REMARK   90  A    between atoms: _209  and  _212
REMARK   91  A    between atoms: _212  and  _213
REMARK   92  A    between atoms: _218  and  _219
REMARK   93  A    between atoms: _221  and  _223
REMARK   94  A    between atoms: _223  and  _224
REMARK   95  A    between atoms: _223  and  _226
REMARK   96  A    between atoms: _226  and  _227
REMARK   97  A    between atoms: _232  and  _234
REMARK   98  A    between atoms: _234  and  _235
REMARK   99  A    between atoms: _234  and  _237
REMARK  100  A    between atoms: _237  and  _238
REMARK  101  A    between atoms: _244  and  _245
REMARK  102  A    between atoms: _250  and  _252
REMARK  103  A    between atoms: _252  and  _253
REMARK  104  A    between atoms: _252  and  _255
REMARK  105  A    between atoms: _255  and  _256
REMARK  106  A    between atoms: _256  and  _257
REMARK  107  A    between atoms: _260  and  _262
REMARK  108  A    between atoms: _262  and  _263
REMARK  109  A    between atoms: _262  and  _265
REMARK  110  A    between atoms: _265  and  _266
REMARK  111  A    between atoms: _272  and  _274
REMARK  112  A    between atoms: _274  and  _275
REMARK  113  A    between atoms: _274  and  _277
REMARK  114  A    between atoms: _277  and  _278
REMARK  115  A    between atoms: _281  and  _283
REMARK  116  A    between atoms: _283  and  _284
REMARK  117  A    between atoms: _283  and  _286
REMARK  118  A    between atoms: _286  and  _287
REMARK  119  A    between atoms: _287  and  _288
REMARK  120  A    between atoms: _290  and  _292
REMARK  121  A    between atoms: _292  and  _293
REMARK  122  A    between atoms: _292  and  _295
REMARK  123  A    between atoms: _295  and  _296
REMARK  124  A    between atoms: _299  and  _301
REMARK  125  A    between atoms: _301  and  _302
REMARK  126  A    between atoms: _301  and  _304
REMARK  127  A    between atoms: _304  and  _305
REMARK  128  A    between atoms: _305  and  _306
REMARK  129  A    between atoms: _309  and  _311
REMARK  130  A    between atoms: _311  and  _312
REMARK  131  A    between atoms: _311  and  _314
REMARK  132  A    between atoms: _314  and  _315
REMARK  133  A    between atoms: _325  and  _327
REMARK  134  A    between atoms: _327  and  _328
REMARK  135  A    between atoms: _327  and  _330
REMARK  136  A    between atoms: _330  and  _331
REMARK  137  A    between atoms: _336  and  _337
REMARK  138  A    between atoms: _339  and  _341
REMARK  139  A    between atoms: _341  and  _342
REMARK  140  A    between atoms: _341  and  _344
REMARK  141  A    between atoms: _344  and  _345
REMARK  142  A    between atoms: _348  and  _350
REMARK  143  A    between atoms: _350  and  _351
REMARK  144  A    between atoms: _350  and  _353
REMARK  145  A    between atoms: _353  and  _354
REMARK  146  A    between atoms: _356  and  _358
REMARK  147  A    between atoms: _358  and  _359
REMARK  148  A    between atoms: _358  and  _361
REMARK  149  A    between atoms: _361  and  _362
REMARK  150  A    between atoms: _365  and  _367
REMARK  151  A    between atoms: _367  and  _368
REMARK  152  A    between atoms: _371  and  _373
REMARK  153  A    between atoms: _373  and  _374
REMARK  154  A    between atoms: _373  and  _376
REMARK  155  A    between atoms: _376  and  _377
REMARK  156  A    between atoms: _377  and  _378
REMARK  157  A    between atoms: _381  and  _383
REMARK  158  A    between atoms: _383  and  _384
REMARK  159  A    between atoms: _383  and  _386
REMARK  160  A    between atoms: _386  and  _387
REMARK  161  A    between atoms: _387  and  _388
REMARK  162  A    between atoms: _388  and  _389
REMARK  163  A    between atoms: _398  and  _400
REMARK  164  A    between atoms: _400  and  _401
REMARK  165  A    between atoms: _400  and  _403
REMARK  166  A    between atoms: _403  and  _404
REMARK  167  A    between atoms: _410  and  _412
REMARK  168  A    between atoms: _412  and  _413
REMARK  169  A    between atoms: _412  and  _415
REMARK  170  A    between atoms: _415  and  _416
REMARK  171  A    between atoms: _416  and  _417
REMARK  172  A    between atoms: _420  and  _422
REMARK  173  A    between atoms: _422  and  _423
REMARK  174  A    between atoms: _422  and  _425
REMARK  175  A    between atoms: _428  and  _430
REMARK  176  A    between atoms: _430  and  _431
REMARK  177  A    between atoms: _430  and  _433
REMARK  178  A    between atoms: _433  and  _434
REMARK  179  A    between atoms: _439  and  _440
REMARK  180  A    between atoms: _442  and  _444
REMARK  181  A    between atoms: _444  and  _445
REMARK  182  A    between atoms: _444  and  _447
REMARK  183  A    between atoms: _447  and  _448
REMARK  184  A    between atoms: _451  and  _453
REMARK  185  A    between atoms: _453  and  _454
REMARK  186  A    between atoms: _453  and  _456
REMARK  187  A    between atoms: _456  and  _457
REMARK  188  A    between atoms: _457  and  _458
REMARK  189  A    between atoms: _461  and  _463
REMARK  190  A    between atoms: _463  and  _464
REMARK  191  A    between atoms: _463  and  _466
REMARK  192  A    between atoms: _466  and  _467
REMARK  193  A    between atoms: _470  and  _472
REMARK  194  A    between atoms: _472  and  _473
REMARK  195  A    between atoms: _476  and  _478
REMARK  196  A    between atoms: _478  and  _479
REMARK  197  A    between atoms: _478  and  _481
REMARK  198  A    between atoms: _481  and  _482
REMARK  199  A    between atoms: _487  and  _489
REMARK  200  A    between atoms: _489  and  _490
REMARK  201  A    between atoms: _492  and  _494
REMARK  202  A    between atoms: _494  and  _495
REMARK  203  A    between atoms: _494  and  _497
REMARK  204  A    between atoms: _497  and  _498
REMARK  205  A    between atoms: _504  and  _506
REMARK  206  A    between atoms: _506  and  _507
REMARK  207  A    between atoms: _506  and  _509
REMARK  208  A    between atoms: _509  and  _510
REMARK  209  A    between atoms: _515  and  _517
REMARK  210  A    between atoms: _517  and  _518
REMARK  211  A    between atoms: _517  and  _520
REMARK  212  A    between atoms: _520  and  _521
REMARK  213  A    between atoms: _521  and  _522
REMARK  214  A    between atoms: _525  and  _527
REMARK  215  A    between atoms: _527  and  _528
REMARK  216  A    between atoms: _527  and  _530
REMARK  217  A    between atoms: _530  and  _531
REMARK  218  A    between atoms: _534  and  _536
REMARK  219  A    between atoms: _536  and  _537
REMARK  220  A    between atoms: _536  and  _539
REMARK  221  A    between atoms: _541  and  _543
REMARK  222  A    between atoms: _543  and  _544
REMARK  223  A    between atoms: _543  and  _546
REMARK  224  A    between atoms: _546  and  _547
REMARK  225  A    between atoms: _549  and  _551
REMARK  226  A    between atoms: _551  and  _552
REMARK  227  A    between atoms: _554  and  _556
REMARK  228  A    between atoms: _556  and  _557
REMARK  229  A    between atoms: _556  and  _559
REMARK  230  A    between atoms: _562  and  _564
REMARK  231  A    between atoms: _564  and  _565
REMARK  232  A    between atoms: _568  and  _570
REMARK  233  A    between atoms: _570  and  _571
REMARK  234  A    between atoms: _570  and  _573
REMARK  235  A    between atoms: _573  and  _574
REMARK  236  A    between atoms: _577  and  _579
REMARK  237  A    between atoms: _579  and  _580
REMARK  238  A    between atoms: _582  and  _584
REMARK  239  A    between atoms: _584  and  _585
REMARK  240  A    between atoms: _584  and  _587
REMARK  241  A    between atoms: _590  and  _592
REMARK  242  A    between atoms: _592  and  _593
REMARK  243  A    between atoms: _592  and  _595
REMARK  244  A    between atoms: _595  and  _596
REMARK  245  A    between atoms: _599  and  _601
REMARK  246  A    between atoms: _601  and  _602
REMARK  247  A    between atoms: _601  and  _604
REMARK  248  A    between atoms: _604  and  _605
REMARK  249  A    between atoms: _605  and  _606
REMARK  250  A    between atoms: _606  and  _607
REMARK  251  A    between atoms: _616  and  _618
REMARK  252  A    between atoms: _618  and  _619
REMARK  253  A    between atoms: _618  and  _621
REMARK  254  A    between atoms: _621  and  _622
REMARK  255  A    between atoms: _625  and  _627
REMARK  256  A    between atoms: _627  and  _628
REMARK  257  A    between atoms: _627  and  _630
REMARK  258  A    between atoms: _630  and  _631
REMARK  259  A    between atoms: _634  and  _636
REMARK  260  A    between atoms: _636  and  _637
REMARK  261  A    between atoms: _636  and  _639
REMARK  262  A    between atoms: _639  and  _640
REMARK                            x       y       z     vdW  Elec       q    Type
REMARK                         _______ _______ _______ _____ _____    ______ ____
ROOT
ATOM      1  O   HOH     1      -2.957   3.736  -4.306  0.00  0.00    +0.000 OA
ENDROOT
TORSDOF 0
REMARK  Name = ../refined-set-2016/3a5y/3a5y_pocket.pdb
REMARK  262 active torsions:
REMARK  status: ('A' for Active; 'I' for Inactive)
REMARK    1  A    between atoms: _1  and  _3
REMARK    2  A    between atoms: _3  and  _4
REMARK    3  A    between atoms: _3  and  _6
REMARK    4  A    between atoms: _9  and  _11
REMARK    5  A    between atoms: _11  and  _12
REMARK    6  A    between atoms: _11  and  _14
REMARK    7  A    between atoms: _14  and  _15
REMARK    8  A    between atoms: _18  and  _20
REMARK    9  A    between atoms: _20  and  _21
REMARK   10  A    between atoms: _20  and  _23
REMARK   11  A    between atoms: _23  and  _24
REMARK   12  A    between atoms: _29  and  _31
REMARK   13  A    between atoms: _31  and  _32
REMARK   14  A    between atoms: _31  and  _34
REMARK   15  A    between atoms: _34  and  _35
REMARK   16  A    between atoms: _38  and  _40
REMARK   17  A    between atoms: _40  and  _41
REMARK   18  A    between atoms: _40  and  _43
REMARK   19  A    between atoms: _43  and  _44
REMARK   20  A    between atoms: _47  and  _49
REMARK   21  A    between atoms: _49  and  _50
REMARK   22  A    between atoms: _49  and  _52
REMARK   23  A    between atoms: _52  and  _53
REMARK   24  A    between atoms: _56  and  _57
REMARK   25  A    between atoms: _62  and  _64
REMARK   26  A    between atoms: _64  and  _65
REMARK   27  A    between atoms: _64  and  _67
REMARK   28  A    between atoms: _67  and  _68
REMARK   29  A    between atoms: _68  and  _69
REMARK   30  A    between atoms: _72  and  _74
REMARK   31  A    between atoms: _74  and  _75
REMARK   32  A    between atoms: _74  and  _77
REMARK   33  A    between atoms: _77  and  _78
REMARK   34  A    between atoms: _83  and  _84
REMARK   35  A    between atoms: _86  and  _88
REMARK   36  A    between atoms: _88  and  _89
REMARK   37  A    between atoms: _88  and  _91
REMARK   38  A    between atoms: _91  and  _92
REMARK   39  A    between atoms: _92  and  _93
REMARK   40  A    between atoms: _95  and  _97
REMARK   41  A    between atoms: _97  and  _98
REMARK   42  A    between atoms: _97  and  _100
REMARK   43  A    between atoms: _100  and  _101
REMARK   44  A    between atoms: _101  and  _102
REMARK   45  A    between atoms: _102  and  _103
REMARK   46  A    between atoms: _103  and  _104
REMARK   47  A    between atoms: _108  and  _110
REMARK   48  A    between atoms: _110  and  _111
REMARK   49  A    between atoms: _110  and  _113
REMARK   50  A    between atoms: _113  and  _114
REMARK   51  A    between atoms: _116  and  _118
REMARK   52  A    between atoms: _118  and  _119
REMARK   53  A    between atoms: _118  and  _121
REMARK   54  A    between atoms: _121  and  _122
REMARK   55  A    between atoms: _128  and  _130
REMARK   56  A    between atoms: _130  and  _131
REMARK   57  A    between atoms: _130  and  _133
REMARK   58  A    between atoms: _133  and  _134
REMARK   59  A    between atoms: _134  and  _135
REMARK   60  A    between atoms: _135  and  _136
REMARK   61  A    between atoms: _145  and  _147
REMARK   62  A    between atoms: _147  and  _148
REMARK   63  A    between atoms: _147  and  _150
REMARK   64  A    between atoms: _150  and  _151
REMARK   65  A    between atoms: _156  and  _158
REMARK   66  A    between atoms: _158  and  _159
REMARK   67  A    between atoms: _158  and  _161
REMARK   68  A    between atoms: _161  and  _162
REMARK   69  A    between atoms: _162  and  _163
REMARK   70  A    between atoms: _166  and  _168
REMARK   71  A    between atoms: _168  and  _169
REMARK   72  A    between atoms: _168  and  _171
REMARK   73  A    between atoms: _171  and  _172
REMARK   74  A    between atoms: _172  and  _173
REMARK   75  A    between atoms: _176  and  _178
REMARK   76  A    between atoms: _178  and  _179
REMARK   77  A    between atoms: _178  and  _181
REMARK   78  A    between atoms: _181  and  _182
REMARK   79  A    between atoms: _182  and  _183
REMARK   80  A    between atoms: _185  and  _187
REMARK   81  A    between atoms: _187  and  _188
REMARK   82  A    between atoms: _190  and  _192
REMARK   83  A    between atoms: _192  and  _193
REMARK   84  A    between atoms: _192  and  _195
REMARK   85  A    between atoms: _195  and  _196
REMARK   86  A    between atoms: _196  and  _197
REMARK   87  A    between atoms: _197  and  _198
REMARK   88  A    between atoms: _207  and  _209
REMARK   89  A    between atoms: _209  and  _210
REMARK   90  A    between atoms: _209  and  _212
REMARK   91  A    between atoms: _212  and  _213
REMARK   92  A    between atoms: _218  and  _219
REMARK   93  A    between atoms: _221  and  _223
REMARK   94  A    between atoms: _223  and  _224
REMARK   95  A    between atoms: _223  and  _226
REMARK   96  A    between atoms: _226  and  _227
REMARK   97  A    between atoms: _232  and  _234
REMARK   98  A    between atoms: _234  and  _235
REMARK   99  A    between atoms: _234  and  _237
REMARK  100  A    between atoms: _237  and  _238
REMARK  101  A    between atoms: _244  and  _245
REMARK  102  A    between atoms: _250  and  _252
REMARK  103  A    between atoms: _252  and  _253
REMARK  104  A    between atoms: _252  and  _255
REMARK  105  A    between atoms: _255  and  _256
REMARK  106  A    between atoms: _256  and  _257
REMARK  107  A    between atoms: _260  and  _262
REMARK  108  A    between atoms: _262  and  _263
REMARK  109  A    between atoms: _262  and  _265
REMARK  110  A    between atoms: _265  and  _266
REMARK  111  A    between atoms: _272  and  _274
REMARK  112  A    between atoms: _274  and  _275
REMARK  113  A    between atoms: _274  and  _277
REMARK  114  A    between atoms: _277  and  _278
REMARK  115  A    between atoms: _281  and  _283
REMARK  116  A    between atoms: _283  and  _284
REMARK  117  A    between atoms: _283  and  _286
REMARK  118  A    between atoms: _286  and  _287
REMARK  119  A    between atoms: _287  and  _288
REMARK  120  A    between atoms: _290  and  _292
REMARK  121  A    between atoms: _292  and  _293
REMARK  122  A    between atoms: _292  and  _295
REMARK  123  A    between atoms: _295  and  _296
REMARK  124  A    between atoms: _299  and  _301
REMARK  125  A    between atoms: _301  and  _302
REMARK  126  A    between atoms: _301  and  _304
REMARK  127  A    between atoms: _304  and  _305
REMARK  128  A    between atoms: _305  and  _306
REMARK  129  A    between atoms: _309  and  _311
REMARK  130  A    between atoms: _311  and  _312
REMARK  131  A    between atoms: _311  and  _314
REMARK  132  A    between atoms: _314  and  _315
REMARK  133  A    between atoms: _325  and  _327
REMARK  134  A    between atoms: _327  and  _328
REMARK  135  A    between atoms: _327  and  _330
REMARK  136  A    between atoms: _330  and  _331
REMARK  137  A    between atoms: _336  and  _337
REMARK  138  A    between atoms: _339  and  _341
REMARK  139  A    between atoms: _341  and  _342
REMARK  140  A    between atoms: _341  and  _344
REMARK  141  A    between atoms: _344  and  _345
REMARK  142  A    between atoms: _348  and  _350
REMARK  143  A    between atoms: _350  and  _351
REMARK  144  A    between atoms: _350  and  _353
REMARK  145  A    between atoms: _353  and  _354
REMARK  146  A    between atoms: _356  and  _358
REMARK  147  A    between atoms: _358  and  _359
REMARK  148  A    between atoms: _358  and  _361
REMARK  149  A    between atoms: _361  and  _362
REMARK  150  A    between atoms: _365  and  _367
REMARK  151  A    between atoms: _367  and  _368
REMARK  152  A    between atoms: _371  and  _373
REMARK  153  A    between atoms: _373  and  _374
REMARK  154  A    between atoms: _373  and  _376
REMARK  155  A    between atoms: _376  and  _377
REMARK  156  A    between atoms: _377  and  _378
REMARK  157  A    between atoms: _381  and  _383
REMARK  158  A    between atoms: _383  and  _384
REMARK  159  A    between atoms: _383  and  _386
REMARK  160  A    between atoms: _386  and  _387
REMARK  161  A    between atoms: _387  and  _388
REMARK  162  A    between atoms: _388  and  _389
REMARK  163  A    between atoms: _398  and  _400
REMARK  164  A    between atoms: _400  and  _401
REMARK  165  A    between atoms: _400  and  _403
REMARK  166  A    between atoms: _403  and  _404
REMARK  167  A    between atoms: _410  and  _412
REMARK  168  A    between atoms: _412  and  _413
REMARK  169  A    between atoms: _412  and  _415
REMARK  170  A    between atoms: _415  and  _416
REMARK  171  A    between atoms: _416  and  _417
REMARK  172  A    between atoms: _420  and  _422
REMARK  173  A    between atoms: _422  and  _423
REMARK  174  A    between atoms: _422  and  _425
REMARK  175  A    between atoms: _428  and  _430
REMARK  176  A    between atoms: _430  and  _431
REMARK  177  A    between atoms: _430  and  _433
REMARK  178  A    between atoms: _433  and  _434
REMARK  179  A    between atoms: _439  and  _440
REMARK  180  A    between atoms: _442  and  _444
REMARK  181  A    between atoms: _444  and  _445
REMARK  182  A    between atoms: _444  and  _447
REMARK  183  A    between atoms: _447  and  _448
REMARK  184  A    between atoms: _451  and  _453
REMARK  185  A    between atoms: _453  and  _454
REMARK  186  A    between atoms: _453  and  _456
REMARK  187  A    between atoms: _456  and  _457
REMARK  188  A    between atoms: _457  and  _458
REMARK  189  A    between atoms: _461  and  _463
REMARK  190  A    between atoms: _463  and  _464
REMARK  191  A    between atoms: _463  and  _466
REMARK  192  A    between atoms: _466  and  _467
REMARK  193  A    between atoms: _470  and  _472
REMARK  194  A    between atoms: _472  and  _473
REMARK  195  A    between atoms: _476  and  _478
REMARK  196  A    between atoms: _478  and  _479
REMARK  197  A    between atoms: _478  and  _481
REMARK  198  A    between atoms: _481  and  _482
REMARK  199  A    between atoms: _487  and  _489
REMARK  200  A    between atoms: _489  and  _490
REMARK  201  A    between atoms: _492  and  _494
REMARK  202  A    between atoms: _494  and  _495
REMARK  203  A    between atoms: _494  and  _497
REMARK  204  A    between atoms: _497  and  _498
REMARK  205  A    between atoms: _504  and  _506
REMARK  206  A    between atoms: _506  and  _507
REMARK  207  A    between atoms: _506  and  _509
REMARK  208  A    between atoms: _509  and  _510
REMARK  209  A    between atoms: _515  and  _517
REMARK  210  A    between atoms: _517  and  _518
REMARK  211  A    between atoms: _517  and  _520
REMARK  212  A    between atoms: _520  and  _521
REMARK  213  A    between atoms: _521  and  _522
REMARK  214  A    between atoms: _525  and  _527
REMARK  215  A    between atoms: _527  and  _528
REMARK  216  A    between atoms: _527  and  _530
REMARK  217  A    between atoms: _530  and  _531
REMARK  218  A    between atoms: _534  and  _536
REMARK  219  A    between atoms: _536  and  _537
REMARK  220  A    between atoms: _536  and  _539
REMARK  221  A    between atoms: _541  and  _543
REMARK  222  A    between atoms: _543  and  _544
REMARK  223  A    between atoms: _543  and  _546
REMARK  224  A    between atoms: _546  and  _547
REMARK  225  A    between atoms: _549  and  _551
REMARK  226  A    between atoms: _551  and  _552
REMARK  227  A    between atoms: _554  and  _556
REMARK  228  A    between atoms: _556  and  _557
REMARK  229  A    between atoms: _556  and  _559
REMARK  230  A    between atoms: _562  and  _564
REMARK  231  A    between atoms: _564  and  _565
REMARK  232  A    between atoms: _568  and  _570
REMARK  233  A    between atoms: _570  and  _571
REMARK  234  A    between atoms: _570  and  _573
REMARK  235  A    between atoms: _573  and  _574
REMARK  236  A    between atoms: _577  and  _579
REMARK  237  A    between atoms: _579  and  _580
REMARK  238  A    between atoms: _582  and  _584
REMARK  239  A    between atoms: _584  and  _585
REMARK  240  A    between atoms: _584  and  _587
REMARK  241  A    between atoms: _590  and  _592
REMARK  242  A    between atoms: _592  and  _593
REMARK  243  A    between atoms: _592  and  _595
REMARK  244  A    between atoms: _595  and  _596
REMARK  245  A    between atoms: _599  and  _601
REMARK  246  A    between atoms: _601  and  _602
REMARK  247  A    between atoms: _601  and  _604
REMARK  248  A    between atoms: _604  and  _605
REMARK  249  A    between atoms: _605  and  _606
REMARK  250  A    between atoms: _606  and  _607
REMARK  251  A    between atoms: _616  and  _618
REMARK  252  A    between atoms: _618  and  _619
REMARK  253  A    between atoms: _618  and  _621
REMARK  254  A    between atoms: _621  and  _622
REMARK  255  A    between atoms: _625  and  _627
REMARK  256  A    between atoms: _627  and  _628
REMARK  257  A    between atoms: _627  and  _630
REMARK  258  A    between atoms: _630  and  _631
REMARK  259  A    between atoms: _634  and  _636
REMARK  260  A    between atoms: _636  and  _637
REMARK  261  A    between atoms: _636  and  _639
REMARK  262  A    between atoms: _639  and  _640
REMARK                            x       y       z     vdW  Elec       q    Type
REMARK                         _______ _______ _______ _____ _____    ______ ____
ROOT
ATOM      1  O   HOH     1      -6.324  -0.029  -2.513  0.00  0.00    +0.000 OA
ENDROOT
TORSDOF 0
REMARK  Name = ../refined-set-2016/3a5y/3a5y_pocket.pdb
REMARK  262 active torsions:
REMARK  status: ('A' for Active; 'I' for Inactive)
REMARK    1  A    between atoms: _1  and  _3
REMARK    2  A    between atoms: _3  and  _4
REMARK    3  A    between atoms: _3  and  _6
REMARK    4  A    between atoms: _9  and  _11
REMARK    5  A    between atoms: _11  and  _12
REMARK    6  A    between atoms: _11  and  _14
REMARK    7  A    between atoms: _14  and  _15
REMARK    8  A    between atoms: _18  and  _20
REMARK    9  A    between atoms: _20  and  _21
REMARK   10  A    between atoms: _20  and  _23
REMARK   11  A    between atoms: _23  and  _24
REMARK   12  A    between atoms: _29  and  _31
REMARK   13  A    between atoms: _31  and  _32
REMARK   14  A    between atoms: _31  and  _34
REMARK   15  A    between atoms: _34  and  _35
REMARK   16  A    between atoms: _38  and  _40
REMARK   17  A    between atoms: _40  and  _41
REMARK   18  A    between atoms: _40  and  _43
REMARK   19  A    between atoms: _43  and  _44
REMARK   20  A    between atoms: _47  and  _49
REMARK   21  A    between atoms: _49  and  _50
REMARK   22  A    between atoms: _49  and  _52
REMARK   23  A    between atoms: _52  and  _53
REMARK   24  A    between atoms: _56  and  _57
REMARK   25  A    between atoms: _62  and  _64
REMARK   26  A    between atoms: _64  and  _65
REMARK   27  A    between atoms: _64  and  _67
REMARK   28  A    between atoms: _67  and  _68
REMARK   29  A    between atoms: _68  and  _69
REMARK   30  A    between atoms: _72  and  _74
REMARK   31  A    between atoms: _74  and  _75
REMARK   32  A    between atoms: _74  and  _77
REMARK   33  A    between atoms: _77  and  _78
REMARK   34  A    between atoms: _83  and  _84
REMARK   35  A    between atoms: _86  and  _88
REMARK   36  A    between atoms: _88  and  _89
REMARK   37  A    between atoms: _88  and  _91
REMARK   38  A    between atoms: _91  and  _92
REMARK   39  A    between atoms: _92  and  _93
REMARK   40  A    between atoms: _95  and  _97
REMARK   41  A    between atoms: _97  and  _98
REMARK   42  A    between atoms: _97  and  _100
REMARK   43  A    between atoms: _100  and  _101
REMARK   44  A    between atoms: _101  and  _102
REMARK   45  A    between atoms: _102  and  _103
REMARK   46  A    between atoms: _103  and  _104
REMARK   47  A    between atoms: _108  and  _110
REMARK   48  A    between atoms: _110  and  _111
REMARK   49  A    between atoms: _110  and  _113
REMARK   50  A    between atoms: _113  and  _114
REMARK   51  A    between atoms: _116  and  _118
REMARK   52  A    between atoms: _118  and  _119
REMARK   53  A    between atoms: _118  and  _121
REMARK   54  A    between atoms: _121  and  _122
REMARK   55  A    between atoms: _128  and  _130
REMARK   56  A    between atoms: _130  and  _131
REMARK   57  A    between atoms: _130  and  _133
REMARK   58  A    between atoms: _133  and  _134
REMARK   59  A    between atoms: _134  and  _135
REMARK   60  A    between atoms: _135  and  _136
REMARK   61  A    between atoms: _145  and  _147
REMARK   62  A    between atoms: _147  and  _148
REMARK   63  A    between atoms: _147  and  _150
REMARK   64  A    between atoms: _150  and  _151
REMARK   65  A    between atoms: _156  and  _158
REMARK   66  A    between atoms: _158  and  _159
REMARK   67  A    between atoms: _158  and  _161
REMARK   68  A    between atoms: _161  and  _162
REMARK   69  A    between atoms: _162  and  _163
REMARK   70  A    between atoms: _166  and  _168
REMARK   71  A    between atoms: _168  and  _169
REMARK   72  A    between atoms: _168  and  _171
REMARK   73  A    between atoms: _171  and  _172
REMARK   74  A    between atoms: _172  and  _173
REMARK   75  A    between atoms: _176  and  _178
REMARK   76  A    between atoms: _178  and  _179
REMARK   77  A    between atoms: _178  and  _181
REMARK   78  A    between atoms: _181  and  _182
REMARK   79  A    between atoms: _182  and  _183
REMARK   80  A    between atoms: _185  and  _187
REMARK   81  A    between atoms: _187  and  _188
REMARK   82  A    between atoms: _190  and  _192
REMARK   83  A    between atoms: _192  and  _193
REMARK   84  A    between atoms: _192  and  _195
REMARK   85  A    between atoms: _195  and  _196
REMARK   86  A    between atoms: _196  and  _197
REMARK   87  A    between atoms: _197  and  _198
REMARK   88  A    between atoms: _207  and  _209
REMARK   89  A    between atoms: _209  and  _210
REMARK   90  A    between atoms: _209  and  _212
REMARK   91  A    between atoms: _212  and  _213
REMARK   92  A    between atoms: _218  and  _219
REMARK   93  A    between atoms: _221  and  _223
REMARK   94  A    between atoms: _223  and  _224
REMARK   95  A    between atoms: _223  and  _226
REMARK   96  A    between atoms: _226  and  _227
REMARK   97  A    between atoms: _232  and  _234
REMARK   98  A    between atoms: _234  and  _235
REMARK   99  A    between atoms: _234  and  _237
REMARK  100  A    between atoms: _237  and  _238
REMARK  101  A    between atoms: _244  and  _245
REMARK  102  A    between atoms: _250  and  _252
REMARK  103  A    between atoms: _252  and  _253
REMARK  104  A    between atoms: _252  and  _255
REMARK  105  A    between atoms: _255  and  _256
REMARK  106  A    between atoms: _256  and  _257
REMARK  107  A    between atoms: _260  and  _262
REMARK  108  A    between atoms: _262  and  _263
REMARK  109  A    between atoms: _262  and  _265
REMARK  110  A    between atoms: _265  and  _266
REMARK  111  A    between atoms: _272  and  _274
REMARK  112  A    between atoms: _274  and  _275
REMARK  113  A    between atoms: _274  and  _277
REMARK  114  A    between atoms: _277  and  _278
REMARK  115  A    between atoms: _281  and  _283
REMARK  116  A    between atoms: _283  and  _284
REMARK  117  A    between atoms: _283  and  _286
REMARK  118  A    between atoms: _286  and  _287
REMARK  119  A    between atoms: _287  and  _288
REMARK  120  A    between atoms: _290  and  _292
REMARK  121  A    between atoms: _292  and  _293
REMARK  122  A    between atoms: _292  and  _295
REMARK  123  A    between atoms: _295  and  _296
REMARK  124  A    between atoms: _299  and  _301
REMARK  125  A    between atoms: _301  and  _302
REMARK  126  A    between atoms: _301  and  _304
REMARK  127  A    between atoms: _304  and  _305
REMARK  128  A    between atoms: _305  and  _306
REMARK  129  A    between atoms: _309  and  _311
REMARK  130  A    between atoms: _311  and  _312
REMARK  131  A    between atoms: _311  and  _314
REMARK  132  A    between atoms: _314  and  _315
REMARK  133  A    between atoms: _325  and  _327
REMARK  134  A    between atoms: _327  and  _328
REMARK  135  A    between atoms: _327  and  _330
REMARK  136  A    between atoms: _330  and  _331
REMARK  137  A    between atoms: _336  and  _337
REMARK  138  A    between atoms: _339  and  _341
REMARK  139  A    between atoms: _341  and  _342
REMARK  140  A    between atoms: _341  and  _344
REMARK  141  A    between atoms: _344  and  _345
REMARK  142  A    between atoms: _348  and  _350
REMARK  143  A    between atoms: _350  and  _351
REMARK  144  A    between atoms: _350  and  _353
REMARK  145  A    between atoms: _353  and  _354
REMARK  146  A    between atoms: _356  and  _358
REMARK  147  A    between atoms: _358  and  _359
REMARK  148  A    between atoms: _358  and  _361
REMARK  149  A    between atoms: _361  and  _362
REMARK  150  A    between atoms: _365  and  _367
REMARK  151  A    between atoms: _367  and  _368
REMARK  152  A    between atoms: _371  and  _373
REMARK  153  A    between atoms: _373  and  _374
REMARK  154  A    between atoms: _373  and  _376
REMARK  155  A    between atoms: _376  and  _377
REMARK  156  A    between atoms: _377  and  _378
REMARK  157  A    between atoms: _381  and  _383
REMARK  158  A    between atoms: _383  and  _384
REMARK  159  A    between atoms: _383  and  _386
REMARK  160  A    between atoms: _386  and  _387
REMARK  161  A    between atoms: _387  and  _388
REMARK  162  A    between atoms: _388  and  _389
REMARK  163  A    between atoms: _398  and  _400
REMARK  164  A    between atoms: _400  and  _401
REMARK  165  A    between atoms: _400  and  _403
REMARK  166  A    between atoms: _403  and  _404
REMARK  167  A    between atoms: _410  and  _412
REMARK  168  A    between atoms: _412  and  _413
REMARK  169  A    between atoms: _412  and  _415
REMARK  170  A    between atoms: _415  and  _416
REMARK  171  A    between atoms: _416  and  _417
REMARK  172  A    between atoms: _420  and  _422
REMARK  173  A    between atoms: _422  and  _423
REMARK  174  A    between atoms: _422  and  _425
REMARK  175  A    between atoms: _428  and  _430
REMARK  176  A    between atoms: _430  and  _431
REMARK  177  A    between atoms: _430  and  _433
REMARK  178  A    between atoms: _433  and  _434
REMARK  179  A    between atoms: _439  and  _440
REMARK  180  A    between atoms: _442  and  _444
REMARK  181  A    between atoms: _444  and  _445
REMARK  182  A    between atoms: _444  and  _447
REMARK  183  A    between atoms: _447  and  _448
REMARK  184  A    between atoms: _451  and  _453
REMARK  185  A    between atoms: _453  and  _454
REMARK  186  A    between atoms: _453  and  _456
REMARK  187  A    between atoms: _456  and  _457
REMARK  188  A    between atoms: _457  and  _458
REMARK  189  A    between atoms: _461  and  _463
REMARK  190  A    between atoms: _463  and  _464
REMARK  191  A    between atoms: _463  and  _466
REMARK  192  A    between atoms: _466  and  _467
REMARK  193  A    between atoms: _470  and  _472
REMARK  194  A    between atoms: _472  and  _473
REMARK  195  A    between atoms: _476  and  _478
REMARK  196  A    between atoms: _478  and  _479
REMARK  197  A    between atoms: _478  and  _481
REMARK  198  A    between atoms: _481  and  _482
REMARK  199  A    between atoms: _487  and  _489
REMARK  200  A    between atoms: _489  and  _490
REMARK  201  A    between atoms: _492  and  _494
REMARK  202  A    between atoms: _494  and  _495
REMARK  203  A    between atoms: _494  and  _497
REMARK  204  A    between atoms: _497  and  _498
REMARK  205  A    between atoms: _504  and  _506
REMARK  206  A    between atoms: _506  and  _507
REMARK  207  A    between atoms: _506  and  _509
REMARK  208  A    between atoms: _509  and  _510
REMARK  209  A    between atoms: _515  and  _517
REMARK  210  A    between atoms: _517  and  _518
REMARK  211  A    between atoms: _517  and  _520
REMARK  212  A    between atoms: _520  and  _521
REMARK  213  A    between atoms: _521  and  _522
REMARK  214  A    between atoms: _525  and  _527
REMARK  215  A    between atoms: _527  and  _528
REMARK  216  A    between atoms: _527  and  _530
REMARK  217  A    between atoms: _530  and  _531
REMARK  218  A    between atoms: _534  and  _536
REMARK  219  A    between atoms: _536  and  _537
REMARK  220  A    between atoms: _536  and  _539
REMARK  221  A    between atoms: _541  and  _543
REMARK  222  A    between atoms: _543  and  _544
REMARK  223  A    between atoms: _543  and  _546
REMARK  224  A    between atoms: _546  and  _547
REMARK  225  A    between atoms: _549  and  _551
REMARK  226  A    between atoms: _551  and  _552
REMARK  227  A    between atoms: _554  and  _556
REMARK  228  A    between atoms: _556  and  _557
REMARK  229  A    between atoms: _556  and  _559
REMARK  230  A    between atoms: _562  and  _564
REMARK  231  A    between atoms: _564  and  _565
REMARK  232  A    between atoms: _568  and  _570
REMARK  233  A    between atoms: _570  and  _571
REMARK  234  A    between atoms: _570  and  _573
REMARK  235  A    between atoms: _573  and  _574
REMARK  236  A    between atoms: _577  and  _579
REMARK  237  A    between atoms: _579  and  _580
REMARK  238  A    between atoms: _582  and  _584
REMARK  239  A    between atoms: _584  and  _585
REMARK  240  A    between atoms: _584  and  _587
REMARK  241  A    between atoms: _590  and  _592
REMARK  242  A    between atoms: _592  and  _593
REMARK  243  A    between atoms: _592  and  _595
REMARK  244  A    between atoms: _595  and  _596
REMARK  245  A    between atoms: _599  and  _601
REMARK  246  A    between atoms: _601  and  _602
REMARK  247  A    between atoms: _601  and  _604
REMARK  248  A    between atoms: _604  and  _605
REMARK  249  A    between atoms: _605  and  _606
REMARK  250  A    between atoms: _606  and  _607
REMARK  251  A    between atoms: _616  and  _618
REMARK  252  A    between atoms: _618  and  _619
REMARK  253  A    between atoms: _618  and  _621
REMARK  254  A    between atoms: _621  and  _622
REMARK  255  A    between atoms: _625  and  _627
REMARK  256  A    between atoms: _627  and  _628
REMARK  257  A    between atoms: _627  and  _630
REMARK  258  A    between atoms: _630  and  _631
REMARK  259  A    between atoms: _634  and  _636
REMARK  260  A    between atoms: _636  and  _637
REMARK  261  A    between atoms: _636  and  _639
REMARK  262  A    between atoms: _639  and  _640
REMARK                            x       y       z     vdW  Elec       q    Type
REMARK                         _______ _______ _______ _____ _____    ______ ____
ROOT
ATOM      1  O   HOH     1      -0.477   2.857  -6.720  0.00  0.00    +0.000 OA
ENDROOT
TORSDOF 0
REMARK  Name = ../refined-set-2016/3a5y/3a5y_pocket.pdb
REMARK  262 active torsions:
REMARK  status: ('A' for Active; 'I' for Inactive)
REMARK    1  A    between atoms: _1  and  _3
REMARK    2  A    between atoms: _3  and  _4
REMARK    3  A    between atoms: _3  and  _6
REMARK    4  A    between atoms: _9  and  _11
REMARK    5  A    between atoms: _11  and  _12
REMARK    6  A    between atoms: _11  and  _14
REMARK    7  A    between atoms: _14  and  _15
REMARK    8  A    between atoms: _18  and  _20
REMARK    9  A    between atoms: _20  and  _21
REMARK   10  A    between atoms: _20  and  _23
REMARK   11  A    between atoms: _23  and  _24
REMARK   12  A    between atoms: _29  and  _31
REMARK   13  A    between atoms: _31  and  _32
REMARK   14  A    between atoms: _31  and  _34
REMARK   15  A    between atoms: _34  and  _35
REMARK   16  A    between atoms: _38  and  _40
REMARK   17  A    between atoms: _40  and  _41
REMARK   18  A    between atoms: _40  and  _43
REMARK   19  A    between atoms: _43  and  _44
REMARK   20  A    between atoms: _47  and  _49
REMARK   21  A    between atoms: _49  and  _50
REMARK   22  A    between atoms: _49  and  _52
REMARK   23  A    between atoms: _52  and  _53
REMARK   24  A    between atoms: _56  and  _57
REMARK   25  A    between atoms: _62  and  _64
REMARK   26  A    between atoms: _64  and  _65
REMARK   27  A    between atoms: _64  and  _67
REMARK   28  A    between atoms: _67  and  _68
REMARK   29  A    between atoms: _68  and  _69
REMARK   30  A    between atoms: _72  and  _74
REMARK   31  A    between atoms: _74  and  _75
REMARK   32  A    between atoms: _74  and  _77
REMARK   33  A    between atoms: _77  and  _78
REMARK   34  A    between atoms: _83  and  _84
REMARK   35  A    between atoms: _86  and  _88
REMARK   36  A    between atoms: _88  and  _89
REMARK   37  A    between atoms: _88  and  _91
REMARK   38  A    between atoms: _91  and  _92
REMARK   39  A    between atoms: _92  and  _93
REMARK   40  A    between atoms: _95  and  _97
REMARK   41  A    between atoms: _97  and  _98
REMARK   42  A    between atoms: _97  and  _100
REMARK   43  A    between atoms: _100  and  _101
REMARK   44  A    between atoms: _101  and  _102
REMARK   45  A    between atoms: _102  and  _103
REMARK   46  A    between atoms: _103  and  _104
REMARK   47  A    between atoms: _108  and  _110
REMARK   48  A    between atoms: _110  and  _111
REMARK   49  A    between atoms: _110  and  _113
REMARK   50  A    between atoms: _113  and  _114
REMARK   51  A    between atoms: _116  and  _118
REMARK   52  A    between atoms: _118  and  _119
REMARK   53  A    between atoms: _118  and  _121
REMARK   54  A    between atoms: _121  and  _122
REMARK   55  A    between atoms: _128  and  _130
REMARK   56  A    between atoms: _130  and  _131
REMARK   57  A    between atoms: _130  and  _133
REMARK   58  A    between atoms: _133  and  _134
REMARK   59  A    between atoms: _134  and  _135
REMARK   60  A    between atoms: _135  and  _136
REMARK   61  A    between atoms: _145  and  _147
REMARK   62  A    between atoms: _147  and  _148
REMARK   63  A    between atoms: _147  and  _150
REMARK   64  A    between atoms: _150  and  _151
REMARK   65  A    between atoms: _156  and  _158
REMARK   66  A    between atoms: _158  and  _159
REMARK   67  A    between atoms: _158  and  _161
REMARK   68  A    between atoms: _161  and  _162
REMARK   69  A    between atoms: _162  and  _163
REMARK   70  A    between atoms: _166  and  _168
REMARK   71  A    between atoms: _168  and  _169
REMARK   72  A    between atoms: _168  and  _171
REMARK   73  A    between atoms: _171  and  _172
REMARK   74  A    between atoms: _172  and  _173
REMARK   75  A    between atoms: _176  and  _178
REMARK   76  A    between atoms: _178  and  _179
REMARK   77  A    between atoms: _178  and  _181
REMARK   78  A    between atoms: _181  and  _182
REMARK   79  A    between atoms: _182  and  _183
REMARK   80  A    between atoms: _185  and  _187
REMARK   81  A    between atoms: _187  and  _188
REMARK   82  A    between atoms: _190  and  _192
REMARK   83  A    between atoms: _192  and  _193
REMARK   84  A    between atoms: _192  and  _195
REMARK   85  A    between atoms: _195  and  _196
REMARK   86  A    between atoms: _196  and  _197
REMARK   87  A    between atoms: _197  and  _198
REMARK   88  A    between atoms: _207  and  _209
REMARK   89  A    between atoms: _209  and  _210
REMARK   90  A    between atoms: _209  and  _212
REMARK   91  A    between atoms: _212  and  _213
REMARK   92  A    between atoms: _218  and  _219
REMARK   93  A    between atoms: _221  and  _223
REMARK   94  A    between atoms: _223  and  _224
REMARK   95  A    between atoms: _223  and  _226
REMARK   96  A    between atoms: _226  and  _227
REMARK   97  A    between atoms: _232  and  _234
REMARK   98  A    between atoms: _234  and  _235
REMARK   99  A    between atoms: _234  and  _237
REMARK  100  A    between atoms: _237  and  _238
REMARK  101  A    between atoms: _244  and  _245
REMARK  102  A    between atoms: _250  and  _252
REMARK  103  A    between atoms: _252  and  _253
REMARK  104  A    between atoms: _252  and  _255
REMARK  105  A    between atoms: _255  and  _256
REMARK  106  A    between atoms: _256  and  _257
REMARK  107  A    between atoms: _260  and  _262
REMARK  108  A    between atoms: _262  and  _263
REMARK  109  A    between atoms: _262  and  _265
REMARK  110  A    between atoms: _265  and  _266
REMARK  111  A    between atoms: _272  and  _274
REMARK  112  A    between atoms: _274  and  _275
REMARK  113  A    between atoms: _274  and  _277
REMARK  114  A    between atoms: _277  and  _278
REMARK  115  A    between atoms: _281  and  _283
REMARK  116  A    between atoms: _283  and  _284
REMARK  117  A    between atoms: _283  and  _286
REMARK  118  A    between atoms: _286  and  _287
REMARK  119  A    between atoms: _287  and  _288
REMARK  120  A    between atoms: _290  and  _292
REMARK  121  A    between atoms: _292  and  _293
REMARK  122  A    between atoms: _292  and  _295
REMARK  123  A    between atoms: _295  and  _296
REMARK  124  A    between atoms: _299  and  _301
REMARK  125  A    between atoms: _301  and  _302
REMARK  126  A    between atoms: _301  and  _304
REMARK  127  A    between atoms: _304  and  _305
REMARK  128  A    between atoms: _305  and  _306
REMARK  129  A    between atoms: _309  and  _311
REMARK  130  A    between atoms: _311  and  _312
REMARK  131  A    between atoms: _311  and  _314
REMARK  132  A    between atoms: _314  and  _315
REMARK  133  A    between atoms: _325  and  _327
REMARK  134  A    between atoms: _327  and  _328
REMARK  135  A    between atoms: _327  and  _330
REMARK  136  A    between atoms: _330  and  _331
REMARK  137  A    between atoms: _336  and  _337
REMARK  138  A    between atoms: _339  and  _341
REMARK  139  A    between atoms: _341  and  _342
REMARK  140  A    between atoms: _341  and  _344
REMARK  141  A    between atoms: _344  and  _345
REMARK  142  A    between atoms: _348  and  _350
REMARK  143  A    between atoms: _350  and  _351
REMARK  144  A    between atoms: _350  and  _353
REMARK  145  A    between atoms: _353  and  _354
REMARK  146  A    between atoms: _356  and  _358
REMARK  147  A    between atoms: _358  and  _359
REMARK  148  A    between atoms: _358  and  _361
REMARK  149  A    between atoms: _361  and  _362
REMARK  150  A    between atoms: _365  and  _367
REMARK  151  A    between atoms: _367  and  _368
REMARK  152  A    between atoms: _371  and  _373
REMARK  153  A    between atoms: _373  and  _374
REMARK  154  A    between atoms: _373  and  _376
REMARK  155  A    between atoms: _376  and  _377
REMARK  156  A    between atoms: _377  and  _378
REMARK  157  A    between atoms: _381  and  _383
REMARK  158  A    between atoms: _383  and  _384
REMARK  159  A    between atoms: _383  and  _386
REMARK  160  A    between atoms: _386  and  _387
REMARK  161  A    between atoms: _387  and  _388
REMARK  162  A    between atoms: _388  and  _389
REMARK  163  A    between atoms: _398  and  _400
REMARK  164  A    between atoms: _400  and  _401
REMARK  165  A    between atoms: _400  and  _403
REMARK  166  A    between atoms: _403  and  _404
REMARK  167  A    between atoms: _410  and  _412
REMARK  168  A    between atoms: _412  and  _413
REMARK  169  A    between atoms: _412  and  _415
REMARK  170  A    between atoms: _415  and  _416
REMARK  171  A    between atoms: _416  and  _417
REMARK  172  A    between atoms: _420  and  _422
REMARK  173  A    between atoms: _422  and  _423
REMARK  174  A    between atoms: _422  and  _425
REMARK  175  A    between atoms: _428  and  _430
REMARK  176  A    between atoms: _430  and  _431
REMARK  177  A    between atoms: _430  and  _433
REMARK  178  A    between atoms: _433  and  _434
REMARK  179  A    between atoms: _439  and  _440
REMARK  180  A    between atoms: _442  and  _444
REMARK  181  A    between atoms: _444  and  _445
REMARK  182  A    between atoms: _444  and  _447
REMARK  183  A    between atoms: _447  and  _448
REMARK  184  A    between atoms: _451  and  _453
REMARK  185  A    between atoms: _453  and  _454
REMARK  186  A    between atoms: _453  and  _456
REMARK  187  A    between atoms: _456  and  _457
REMARK  188  A    between atoms: _457  and  _458
REMARK  189  A    between atoms: _461  and  _463
REMARK  190  A    between atoms: _463  and  _464
REMARK  191  A    between atoms: _463  and  _466
REMARK  192  A    between atoms: _466  and  _467
REMARK  193  A    between atoms: _470  and  _472
REMARK  194  A    between atoms: _472  and  _473
REMARK  195  A    between atoms: _476  and  _478
REMARK  196  A    between atoms: _478  and  _479
REMARK  197  A    between atoms: _478  and  _481
REMARK  198  A    between atoms: _481  and  _482
REMARK  199  A    between atoms: _487  and  _489
REMARK  200  A    between atoms: _489  and  _490
REMARK  201  A    between atoms: _492  and  _494
REMARK  202  A    between atoms: _494  and  _495
REMARK  203  A    between atoms: _494  and  _497
REMARK  204  A    between atoms: _497  and  _498
REMARK  205  A    between atoms: _504  and  _506
REMARK  206  A    between atoms: _506  and  _507
REMARK  207  A    between atoms: _506  and  _509
REMARK  208  A    between atoms: _509  and  _510
REMARK  209  A    between atoms: _515  and  _517
REMARK  210  A    between atoms: _517  and  _518
REMARK  211  A    between atoms: _517  and  _520
REMARK  212  A    between atoms: _520  and  _521
REMARK  213  A    between atoms: _521  and  _522
REMARK  214  A    between atoms: _525  and  _527
REMARK  215  A    between atoms: _527  and  _528
REMARK  216  A    between atoms: _527  and  _530
REMARK  217  A    between atoms: _530  and  _531
REMARK  218  A    between atoms: _534  and  _536
REMARK  219  A    between atoms: _536  and  _537
REMARK  220  A    between atoms: _536  and  _539
REMARK  221  A    between atoms: _541  and  _543
REMARK  222  A    between atoms: _543  and  _544
REMARK  223  A    between atoms: _543  and  _546
REMARK  224  A    between atoms: _546  and  _547
REMARK  225  A    between atoms: _549  and  _551
REMARK  226  A    between atoms: _551  and  _552
REMARK  227  A    between atoms: _554  and  _556
REMARK  228  A    between atoms: _556  and  _557
REMARK  229  A    between atoms: _556  and  _559
REMARK  230  A    between atoms: _562  and  _564
REMARK  231  A    between atoms: _564  and  _565
REMARK  232  A    between atoms: _568  and  _570
REMARK  233  A    between atoms: _570  and  _571
REMARK  234  A    between atoms: _570  and  _573
REMARK  235  A    between atoms: _573  and  _574
REMARK  236  A    between atoms: _577  and  _579
REMARK  237  A    between atoms: _579  and  _580
REMARK  238  A    between atoms: _582  and  _584
REMARK  239  A    between atoms: _584  and  _585
REMARK  240  A    between atoms: _584  and  _587
REMARK  241  A    between atoms: _590  and  _592
REMARK  242  A    between atoms: _592  and  _593
REMARK  243  A    between atoms: _592  and  _595
REMARK  244  A    between atoms: _595  and  _596
REMARK  245  A    between atoms: _599  and  _601
REMARK  246  A    between atoms: _601  and  _602
REMARK  247  A    between atoms: _601  and  _604
REMARK  248  A    between atoms: _604  and  _605
REMARK  249  A    between atoms: _605  and  _606
REMARK  250  A    between atoms: _606  and  _607
REMARK  251  A    between atoms: _616  and  _618
REMARK  252  A    between atoms: _618  and  _619
REMARK  253  A    between atoms: _618  and  _621
REMARK  254  A    between atoms: _621  and  _622
REMARK  255  A    between atoms: _625  and  _627
REMARK  256  A    between atoms: _627  and  _628
REMARK  257  A    between atoms: _627  and  _630
REMARK  258  A    between atoms: _630  and  _631
REMARK  259  A    between atoms: _634  and  _636
REMARK  260  A    between atoms: _636  and  _637
REMARK  261  A    between atoms: _636  and  _639
REMARK  262  A    between atoms: _639  and  _640
REMARK                            x       y       z     vdW  Elec       q    Type
REMARK                         _______ _______ _______ _____ _____    ______ ____
ROOT
ATOM      1  O   HOH     1      -2.720   1.844 -15.151  0.00  0.00    +0.000 OA
ENDROOT
TORSDOF 0
REMARK  Name = ../refined-set-2016/3a5y/3a5y_pocket.pdb
REMARK  262 active torsions:
REMARK  status: ('A' for Active; 'I' for Inactive)
REMARK    1  A    between atoms: _1  and  _3
REMARK    2  A    between atoms: _3  and  _4
REMARK    3  A    between atoms: _3  and  _6
REMARK    4  A    between atoms: _9  and  _11
REMARK    5  A    between atoms: _11  and  _12
REMARK    6  A    between atoms: _11  and  _14
REMARK    7  A    between atoms: _14  and  _15
REMARK    8  A    between atoms: _18  and  _20
REMARK    9  A    between atoms: _20  and  _21
REMARK   10  A    between atoms: _20  and  _23
REMARK   11  A    between atoms: _23  and  _24
REMARK   12  A    between atoms: _29  and  _31
REMARK   13  A    between atoms: _31  and  _32
REMARK   14  A    between atoms: _31  and  _34
REMARK   15  A    between atoms: _34  and  _35
REMARK   16  A    between atoms: _38  and  _40
REMARK   17  A    between atoms: _40  and  _41
REMARK   18  A    between atoms: _40  and  _43
REMARK   19  A    between atoms: _43  and  _44
REMARK   20  A    between atoms: _47  and  _49
REMARK   21  A    between atoms: _49  and  _50
REMARK   22  A    between atoms: _49  and  _52
REMARK   23  A    between atoms: _52  and  _53
REMARK   24  A    between atoms: _56  and  _57
REMARK   25  A    between atoms: _62  and  _64
REMARK   26  A    between atoms: _64  and  _65
REMARK   27  A    between atoms: _64  and  _67
REMARK   28  A    between atoms: _67  and  _68
REMARK   29  A    between atoms: _68  and  _69
REMARK   30  A    between atoms: _72  and  _74
REMARK   31  A    between atoms: _74  and  _75
REMARK   32  A    between atoms: _74  and  _77
REMARK   33  A    between atoms: _77  and  _78
REMARK   34  A    between atoms: _83  and  _84
REMARK   35  A    between atoms: _86  and  _88
REMARK   36  A    between atoms: _88  and  _89
REMARK   37  A    between atoms: _88  and  _91
REMARK   38  A    between atoms: _91  and  _92
REMARK   39  A    between atoms: _92  and  _93
REMARK   40  A    between atoms: _95  and  _97
REMARK   41  A    between atoms: _97  and  _98
REMARK   42  A    between atoms: _97  and  _100
REMARK   43  A    between atoms: _100  and  _101
REMARK   44  A    between atoms: _101  and  _102
REMARK   45  A    between atoms: _102  and  _103
REMARK   46  A    between atoms: _103  and  _104
REMARK   47  A    between atoms: _108  and  _110
REMARK   48  A    between atoms: _110  and  _111
REMARK   49  A    between atoms: _110  and  _113
REMARK   50  A    between atoms: _113  and  _114
REMARK   51  A    between atoms: _116  and  _118
REMARK   52  A    between atoms: _118  and  _119
REMARK   53  A    between atoms: _118  and  _121
REMARK   54  A    between atoms: _121  and  _122
REMARK   55  A    between atoms: _128  and  _130
REMARK   56  A    between atoms: _130  and  _131
REMARK   57  A    between atoms: _130  and  _133
REMARK   58  A    between atoms: _133  and  _134
REMARK   59  A    between atoms: _134  and  _135
REMARK   60  A    between atoms: _135  and  _136
REMARK   61  A    between atoms: _145  and  _147
REMARK   62  A    between atoms: _147  and  _148
REMARK   63  A    between atoms: _147  and  _150
REMARK   64  A    between atoms: _150  and  _151
REMARK   65  A    between atoms: _156  and  _158
REMARK   66  A    between atoms: _158  and  _159
REMARK   67  A    between atoms: _158  and  _161
REMARK   68  A    between atoms: _161  and  _162
REMARK   69  A    between atoms: _162  and  _163
REMARK   70  A    between atoms: _166  and  _168
REMARK   71  A    between atoms: _168  and  _169
REMARK   72  A    between atoms: _168  and  _171
REMARK   73  A    between atoms: _171  and  _172
REMARK   74  A    between atoms: _172  and  _173
REMARK   75  A    between atoms: _176  and  _178
REMARK   76  A    between atoms: _178  and  _179
REMARK   77  A    between atoms: _178  and  _181
REMARK   78  A    between atoms: _181  and  _182
REMARK   79  A    between atoms: _182  and  _183
REMARK   80  A    between atoms: _185  and  _187
REMARK   81  A    between atoms: _187  and  _188
REMARK   82  A    between atoms: _190  and  _192
REMARK   83  A    between atoms: _192  and  _193
REMARK   84  A    between atoms: _192  and  _195
REMARK   85  A    between atoms: _195  and  _196
REMARK   86  A    between atoms: _196  and  _197
REMARK   87  A    between atoms: _197  and  _198
REMARK   88  A    between atoms: _207  and  _209
REMARK   89  A    between atoms: _209  and  _210
REMARK   90  A    between atoms: _209  and  _212
REMARK   91  A    between atoms: _212  and  _213
REMARK   92  A    between atoms: _218  and  _219
REMARK   93  A    between atoms: _221  and  _223
REMARK   94  A    between atoms: _223  and  _224
REMARK   95  A    between atoms: _223  and  _226
REMARK   96  A    between atoms: _226  and  _227
REMARK   97  A    between atoms: _232  and  _234
REMARK   98  A    between atoms: _234  and  _235
REMARK   99  A    between atoms: _234  and  _237
REMARK  100  A    between atoms: _237  and  _238
REMARK  101  A    between atoms: _244  and  _245
REMARK  102  A    between atoms: _250  and  _252
REMARK  103  A    between atoms: _252  and  _253
REMARK  104  A    between atoms: _252  and  _255
REMARK  105  A    between atoms: _255  and  _256
REMARK  106  A    between atoms: _256  and  _257
REMARK  107  A    between atoms: _260  and  _262
REMARK  108  A    between atoms: _262  and  _263
REMARK  109  A    between atoms: _262  and  _265
REMARK  110  A    between atoms: _265  and  _266
REMARK  111  A    between atoms: _272  and  _274
REMARK  112  A    between atoms: _274  and  _275
REMARK  113  A    between atoms: _274  and  _277
REMARK  114  A    between atoms: _277  and  _278
REMARK  115  A    between atoms: _281  and  _283
REMARK  116  A    between atoms: _283  and  _284
REMARK  117  A    between atoms: _283  and  _286
REMARK  118  A    between atoms: _286  and  _287
REMARK  119  A    between atoms: _287  and  _288
REMARK  120  A    between atoms: _290  and  _292
REMARK  121  A    between atoms: _292  and  _293
REMARK  122  A    between atoms: _292  and  _295
REMARK  123  A    between atoms: _295  and  _296
REMARK  124  A    between atoms: _299  and  _301
REMARK  125  A    between atoms: _301  and  _302
REMARK  126  A    between atoms: _301  and  _304
REMARK  127  A    between atoms: _304  and  _305
REMARK  128  A    between atoms: _305  and  _306
REMARK  129  A    between atoms: _309  and  _311
REMARK  130  A    between atoms: _311  and  _312
REMARK  131  A    between atoms: _311  and  _314
REMARK  132  A    between atoms: _314  and  _315
REMARK  133  A    between atoms: _325  and  _327
REMARK  134  A    between atoms: _327  and  _328
REMARK  135  A    between atoms: _327  and  _330
REMARK  136  A    between atoms: _330  and  _331
REMARK  137  A    between atoms: _336  and  _337
REMARK  138  A    between atoms: _339  and  _341
REMARK  139  A    between atoms: _341  and  _342
REMARK  140  A    between atoms: _341  and  _344
REMARK  141  A    between atoms: _344  and  _345
REMARK  142  A    between atoms: _348  and  _350
REMARK  143  A    between atoms: _350  and  _351
REMARK  144  A    between atoms: _350  and  _353
REMARK  145  A    between atoms: _353  and  _354
REMARK  146  A    between atoms: _356  and  _358
REMARK  147  A    between atoms: _358  and  _359
REMARK  148  A    between atoms: _358  and  _361
REMARK  149  A    between atoms: _361  and  _362
REMARK  150  A    between atoms: _365  and  _367
REMARK  151  A    between atoms: _367  and  _368
REMARK  152  A    between atoms: _371  and  _373
REMARK  153  A    between atoms: _373  and  _374
REMARK  154  A    between atoms: _373  and  _376
REMARK  155  A    between atoms: _376  and  _377
REMARK  156  A    between atoms: _377  and  _378
REMARK  157  A    between atoms: _381  and  _383
REMARK  158  A    between atoms: _383  and  _384
REMARK  159  A    between atoms: _383  and  _386
REMARK  160  A    between atoms: _386  and  _387
REMARK  161  A    between atoms: _387  and  _388
REMARK  162  A    between atoms: _388  and  _389
REMARK  163  A    between atoms: _398  and  _400
REMARK  164  A    between atoms: _400  and  _401
REMARK  165  A    between atoms: _400  and  _403
REMARK  166  A    between atoms: _403  and  _404
REMARK  167  A    between atoms: _410  and  _412
REMARK  168  A    between atoms: _412  and  _413
REMARK  169  A    between atoms: _412  and  _415
REMARK  170  A    between atoms: _415  and  _416
REMARK  171  A    between atoms: _416  and  _417
REMARK  172  A    between atoms: _420  and  _422
REMARK  173  A    between atoms: _422  and  _423
REMARK  174  A    between atoms: _422  and  _425
REMARK  175  A    between atoms: _428  and  _430
REMARK  176  A    between atoms: _430  and  _431
REMARK  177  A    between atoms: _430  and  _433
REMARK  178  A    between atoms: _433  and  _434
REMARK  179  A    between atoms: _439  and  _440
REMARK  180  A    between atoms: _442  and  _444
REMARK  181  A    between atoms: _444  and  _445
REMARK  182  A    between atoms: _444  and  _447
REMARK  183  A    between atoms: _447  and  _448
REMARK  184  A    between atoms: _451  and  _453
REMARK  185  A    between atoms: _453  and  _454
REMARK  186  A    between atoms: _453  and  _456
REMARK  187  A    between atoms: _456  and  _457
REMARK  188  A    between atoms: _457  and  _458
REMARK  189  A    between atoms: _461  and  _463
REMARK  190  A    between atoms: _463  and  _464
REMARK  191  A    between atoms: _463  and  _466
REMARK  192  A    between atoms: _466  and  _467
REMARK  193  A    between atoms: _470  and  _472
REMARK  194  A    between atoms: _472  and  _473
REMARK  195  A    between atoms: _476  and  _478
REMARK  196  A    between atoms: _478  and  _479
REMARK  197  A    between atoms: _478  and  _481
REMARK  198  A    between atoms: _481  and  _482
REMARK  199  A    between atoms: _487  and  _489
REMARK  200  A    between atoms: _489  and  _490
REMARK  201  A    between atoms: _492  and  _494
REMARK  202  A    between atoms: _494  and  _495
REMARK  203  A    between atoms: _494  and  _497
REMARK  204  A    between atoms: _497  and  _498
REMARK  205  A    between atoms: _504  and  _506
REMARK  206  A    between atoms: _506  and  _507
REMARK  207  A    between atoms: _506  and  _509
REMARK  208  A    between atoms: _509  and  _510
REMARK  209  A    between atoms: _515  and  _517
REMARK  210  A    between atoms: _517  and  _518
REMARK  211  A    between atoms: _517  and  _520
REMARK  212  A    between atoms: _520  and  _521
REMARK  213  A    between atoms: _521  and  _522
REMARK  214  A    between atoms: _525  and  _527
REMARK  215  A    between atoms: _527  and  _528
REMARK  216  A    between atoms: _527  and  _530
REMARK  217  A    between atoms: _530  and  _531
REMARK  218  A    between atoms: _534  and  _536
REMARK  219  A    between atoms: _536  and  _537
REMARK  220  A    between atoms: _536  and  _539
REMARK  221  A    between atoms: _541  and  _543
REMARK  222  A    between atoms: _543  and  _544
REMARK  223  A    between atoms: _543  and  _546
REMARK  224  A    between atoms: _546  and  _547
REMARK  225  A    between atoms: _549  and  _551
REMARK  226  A    between atoms: _551  and  _552
REMARK  227  A    between atoms: _554  and  _556
REMARK  228  A    between atoms: _556  and  _557
REMARK  229  A    between atoms: _556  and  _559
REMARK  230  A    between atoms: _562  and  _564
REMARK  231  A    between atoms: _564  and  _565
REMARK  232  A    between atoms: _568  and  _570
REMARK  233  A    between atoms: _570  and  _571
REMARK  234  A    between atoms: _570  and  _573
REMARK  235  A    between atoms: _573  and  _574
REMARK  236  A    between atoms: _577  and  _579
REMARK  237  A    between atoms: _579  and  _580
REMARK  238  A    between atoms: _582  and  _584
REMARK  239  A    between atoms: _584  and  _585
REMARK  240  A    between atoms: _584  and  _587
REMARK  241  A    between atoms: _590  and  _592
REMARK  242  A    between atoms: _592  and  _593
REMARK  243  A    between atoms: _592  and  _595
REMARK  244  A    between atoms: _595  and  _596
REMARK  245  A    between atoms: _599  and  _601
REMARK  246  A    between atoms: _601  and  _602
REMARK  247  A    between atoms: _601  and  _604
REMARK  248  A    between atoms: _604  and  _605
REMARK  249  A    between atoms: _605  and  _606
REMARK  250  A    between atoms: _606  and  _607
REMARK  251  A    between atoms: _616  and  _618
REMARK  252  A    between atoms: _618  and  _619
REMARK  253  A    between atoms: _618  and  _621
REMARK  254  A    between atoms: _621  and  _622
REMARK  255  A    between atoms: _625  and  _627
REMARK  256  A    between atoms: _627  and  _628
REMARK  257  A    between atoms: _627  and  _630
REMARK  258  A    between atoms: _630  and  _631
REMARK  259  A    between atoms: _634  and  _636
REMARK  260  A    between atoms: _636  and  _637
REMARK  261  A    between atoms: _636  and  _639
REMARK  262  A    between atoms: _639  and  _640
REMARK                            x       y       z     vdW  Elec       q    Type
REMARK                         _______ _______ _______ _____ _____    ______ ____
ROOT
ATOM      1  O   HOH     1      -5.362  -3.436  -4.492  0.00  0.00    +0.000 OA
ENDROOT
TORSDOF 0
REMARK  Name = ../refined-set-2016/3a5y/3a5y_pocket.pdb
REMARK  262 active torsions:
REMARK  status: ('A' for Active; 'I' for Inactive)
REMARK    1  A    between atoms: _1  and  _3
REMARK    2  A    between atoms: _3  and  _4
REMARK    3  A    between atoms: _3  and  _6
REMARK    4  A    between atoms: _9  and  _11
REMARK    5  A    between atoms: _11  and  _12
REMARK    6  A    between atoms: _11  and  _14
REMARK    7  A    between atoms: _14  and  _15
REMARK    8  A    between atoms: _18  and  _20
REMARK    9  A    between atoms: _20  and  _21
REMARK   10  A    between atoms: _20  and  _23
REMARK   11  A    between atoms: _23  and  _24
REMARK   12  A    between atoms: _29  and  _31
REMARK   13  A    between atoms: _31  and  _32
REMARK   14  A    between atoms: _31  and  _34
REMARK   15  A    between atoms: _34  and  _35
REMARK   16  A    between atoms: _38  and  _40
REMARK   17  A    between atoms: _40  and  _41
REMARK   18  A    between atoms: _40  and  _43
REMARK   19  A    between atoms: _43  and  _44
REMARK   20  A    between atoms: _47  and  _49
REMARK   21  A    between atoms: _49  and  _50
REMARK   22  A    between atoms: _49  and  _52
REMARK   23  A    between atoms: _52  and  _53
REMARK   24  A    between atoms: _56  and  _57
REMARK   25  A    between atoms: _62  and  _64
REMARK   26  A    between atoms: _64  and  _65
REMARK   27  A    between atoms: _64  and  _67
REMARK   28  A    between atoms: _67  and  _68
REMARK   29  A    between atoms: _68  and  _69
REMARK   30  A    between atoms: _72  and  _74
REMARK   31  A    between atoms: _74  and  _75
REMARK   32  A    between atoms: _74  and  _77
REMARK   33  A    between atoms: _77  and  _78
REMARK   34  A    between atoms: _83  and  _84
REMARK   35  A    between atoms: _86  and  _88
REMARK   36  A    between atoms: _88  and  _89
REMARK   37  A    between atoms: _88  and  _91
REMARK   38  A    between atoms: _91  and  _92
REMARK   39  A    between atoms: _92  and  _93
REMARK   40  A    between atoms: _95  and  _97
REMARK   41  A    between atoms: _97  and  _98
REMARK   42  A    between atoms: _97  and  _100
REMARK   43  A    between atoms: _100  and  _101
REMARK   44  A    between atoms: _101  and  _102
REMARK   45  A    between atoms: _102  and  _103
REMARK   46  A    between atoms: _103  and  _104
REMARK   47  A    between atoms: _108  and  _110
REMARK   48  A    between atoms: _110  and  _111
REMARK   49  A    between atoms: _110  and  _113
REMARK   50  A    between atoms: _113  and  _114
REMARK   51  A    between atoms: _116  and  _118
REMARK   52  A    between atoms: _118  and  _119
REMARK   53  A    between atoms: _118  and  _121
REMARK   54  A    between atoms: _121  and  _122
REMARK   55  A    between atoms: _128  and  _130
REMARK   56  A    between atoms: _130  and  _131
REMARK   57  A    between atoms: _130  and  _133
REMARK   58  A    between atoms: _133  and  _134
REMARK   59  A    between atoms: _134  and  _135
REMARK   60  A    between atoms: _135  and  _136
REMARK   61  A    between atoms: _145  and  _147
REMARK   62  A    between atoms: _147  and  _148
REMARK   63  A    between atoms: _147  and  _150
REMARK   64  A    between atoms: _150  and  _151
REMARK   65  A    between atoms: _156  and  _158
REMARK   66  A    between atoms: _158  and  _159
REMARK   67  A    between atoms: _158  and  _161
REMARK   68  A    between atoms: _161  and  _162
REMARK   69  A    between atoms: _162  and  _163
REMARK   70  A    between atoms: _166  and  _168
REMARK   71  A    between atoms: _168  and  _169
REMARK   72  A    between atoms: _168  and  _171
REMARK   73  A    between atoms: _171  and  _172
REMARK   74  A    between atoms: _172  and  _173
REMARK   75  A    between atoms: _176  and  _178
REMARK   76  A    between atoms: _178  and  _179
REMARK   77  A    between atoms: _178  and  _181
REMARK   78  A    between atoms: _181  and  _182
REMARK   79  A    between atoms: _182  and  _183
REMARK   80  A    between atoms: _185  and  _187
REMARK   81  A    between atoms: _187  and  _188
REMARK   82  A    between atoms: _190  and  _192
REMARK   83  A    between atoms: _192  and  _193
REMARK   84  A    between atoms: _192  and  _195
REMARK   85  A    between atoms: _195  and  _196
REMARK   86  A    between atoms: _196  and  _197
REMARK   87  A    between atoms: _197  and  _198
REMARK   88  A    between atoms: _207  and  _209
REMARK   89  A    between atoms: _209  and  _210
REMARK   90  A    between atoms: _209  and  _212
REMARK   91  A    between atoms: _212  and  _213
REMARK   92  A    between atoms: _218  and  _219
REMARK   93  A    between atoms: _221  and  _223
REMARK   94  A    between atoms: _223  and  _224
REMARK   95  A    between atoms: _223  and  _226
REMARK   96  A    between atoms: _226  and  _227
REMARK   97  A    between atoms: _232  and  _234
REMARK   98  A    between atoms: _234  and  _235
REMARK   99  A    between atoms: _234  and  _237
REMARK  100  A    between atoms: _237  and  _238
REMARK  101  A    between atoms: _244  and  _245
REMARK  102  A    between atoms: _250  and  _252
REMARK  103  A    between atoms: _252  and  _253
REMARK  104  A    between atoms: _252  and  _255
REMARK  105  A    between atoms: _255  and  _256
REMARK  106  A    between atoms: _256  and  _257
REMARK  107  A    between atoms: _260  and  _262
REMARK  108  A    between atoms: _262  and  _263
REMARK  109  A    between atoms: _262  and  _265
REMARK  110  A    between atoms: _265  and  _266
REMARK  111  A    between atoms: _272  and  _274
REMARK  112  A    between atoms: _274  and  _275
REMARK  113  A    between atoms: _274  and  _277
REMARK  114  A    between atoms: _277  and  _278
REMARK  115  A    between atoms: _281  and  _283
REMARK  116  A    between atoms: _283  and  _284
REMARK  117  A    between atoms: _283  and  _286
REMARK  118  A    between atoms: _286  and  _287
REMARK  119  A    between atoms: _287  and  _288
REMARK  120  A    between atoms: _290  and  _292
REMARK  121  A    between atoms: _292  and  _293
REMARK  122  A    between atoms: _292  and  _295
REMARK  123  A    between atoms: _295  and  _296
REMARK  124  A    between atoms: _299  and  _301
REMARK  125  A    between atoms: _301  and  _302
REMARK  126  A    between atoms: _301  and  _304
REMARK  127  A    between atoms: _304  and  _305
REMARK  128  A    between atoms: _305  and  _306
REMARK  129  A    between atoms: _309  and  _311
REMARK  130  A    between atoms: _311  and  _312
REMARK  131  A    between atoms: _311  and  _314
REMARK  132  A    between atoms: _314  and  _315
REMARK  133  A    between atoms: _325  and  _327
REMARK  134  A    between atoms: _327  and  _328
REMARK  135  A    between atoms: _327  and  _330
REMARK  136  A    between atoms: _330  and  _331
REMARK  137  A    between atoms: _336  and  _337
REMARK  138  A    between atoms: _339  and  _341
REMARK  139  A    between atoms: _341  and  _342
REMARK  140  A    between atoms: _341  and  _344
REMARK  141  A    between atoms: _344  and  _345
REMARK  142  A    between atoms: _348  and  _350
REMARK  143  A    between atoms: _350  and  _351
REMARK  144  A    between atoms: _350  and  _353
REMARK  145  A    between atoms: _353  and  _354
REMARK  146  A    between atoms: _356  and  _358
REMARK  147  A    between atoms: _358  and  _359
REMARK  148  A    between atoms: _358  and  _361
REMARK  149  A    between atoms: _361  and  _362
REMARK  150  A    between atoms: _365  and  _367
REMARK  151  A    between atoms: _367  and  _368
REMARK  152  A    between atoms: _371  and  _373
REMARK  153  A    between atoms: _373  and  _374
REMARK  154  A    between atoms: _373  and  _376
REMARK  155  A    between atoms: _376  and  _377
REMARK  156  A    between atoms: _377  and  _378
REMARK  157  A    between atoms: _381  and  _383
REMARK  158  A    between atoms: _383  and  _384
REMARK  159  A    between atoms: _383  and  _386
REMARK  160  A    between atoms: _386  and  _387
REMARK  161  A    between atoms: _387  and  _388
REMARK  162  A    between atoms: _388  and  _389
REMARK  163  A    between atoms: _398  and  _400
REMARK  164  A    between atoms: _400  and  _401
REMARK  165  A    between atoms: _400  and  _403
REMARK  166  A    between atoms: _403  and  _404
REMARK  167  A    between atoms: _410  and  _412
REMARK  168  A    between atoms: _412  and  _413
REMARK  169  A    between atoms: _412  and  _415
REMARK  170  A    between atoms: _415  and  _416
REMARK  171  A    between atoms: _416  and  _417
REMARK  172  A    between atoms: _420  and  _422
REMARK  173  A    between atoms: _422  and  _423
REMARK  174  A    between atoms: _422  and  _425
REMARK  175  A    between atoms: _428  and  _430
REMARK  176  A    between atoms: _430  and  _431
REMARK  177  A    between atoms: _430  and  _433
REMARK  178  A    between atoms: _433  and  _434
REMARK  179  A    between atoms: _439  and  _440
REMARK  180  A    between atoms: _442  and  _444
REMARK  181  A    between atoms: _444  and  _445
REMARK  182  A    between atoms: _444  and  _447
REMARK  183  A    between atoms: _447  and  _448
REMARK  184  A    between atoms: _451  and  _453
REMARK  185  A    between atoms: _453  and  _454
REMARK  186  A    between atoms: _453  and  _456
REMARK  187  A    between atoms: _456  and  _457
REMARK  188  A    between atoms: _457  and  _458
REMARK  189  A    between atoms: _461  and  _463
REMARK  190  A    between atoms: _463  and  _464
REMARK  191  A    between atoms: _463  and  _466
REMARK  192  A    between atoms: _466  and  _467
REMARK  193  A    between atoms: _470  and  _472
REMARK  194  A    between atoms: _472  and  _473
REMARK  195  A    between atoms: _476  and  _478
REMARK  196  A    between atoms: _478  and  _479
REMARK  197  A    between atoms: _478  and  _481
REMARK  198  A    between atoms: _481  and  _482
REMARK  199  A    between atoms: _487  and  _489
REMARK  200  A    between atoms: _489  and  _490
REMARK  201  A    between atoms: _492  and  _494
REMARK  202  A    between atoms: _494  and  _495
REMARK  203  A    between atoms: _494  and  _497
REMARK  204  A    between atoms: _497  and  _498
REMARK  205  A    between atoms: _504  and  _506
REMARK  206  A    between atoms: _506  and  _507
REMARK  207  A    between atoms: _506  and  _509
REMARK  208  A    between atoms: _509  and  _510
REMARK  209  A    between atoms: _515  and  _517
REMARK  210  A    between atoms: _517  and  _518
REMARK  211  A    between atoms: _517  and  _520
REMARK  212  A    between atoms: _520  and  _521
REMARK  213  A    between atoms: _521  and  _522
REMARK  214  A    between atoms: _525  and  _527
REMARK  215  A    between atoms: _527  and  _528
REMARK  216  A    between atoms: _527  and  _530
REMARK  217  A    between atoms: _530  and  _531
REMARK  218  A    between atoms: _534  and  _536
REMARK  219  A    between atoms: _536  and  _537
REMARK  220  A    between atoms: _536  and  _539
REMARK  221  A    between atoms: _541  and  _543
REMARK  222  A    between atoms: _543  and  _544
REMARK  223  A    between atoms: _543  and  _546
REMARK  224  A    between atoms: _546  and  _547
REMARK  225  A    between atoms: _549  and  _551
REMARK  226  A    between atoms: _551  and  _552
REMARK  227  A    between atoms: _554  and  _556
REMARK  228  A    between atoms: _556  and  _557
REMARK  229  A    between atoms: _556  and  _559
REMARK  230  A    between atoms: _562  and  _564
REMARK  231  A    between atoms: _564  and  _565
REMARK  232  A    between atoms: _568  and  _570
REMARK  233  A    between atoms: _570  and  _571
REMARK  234  A    between atoms: _570  and  _573
REMARK  235  A    between atoms: _573  and  _574
REMARK  236  A    between atoms: _577  and  _579
REMARK  237  A    between atoms: _579  and  _580
REMARK  238  A    between atoms: _582  and  _584
REMARK  239  A    between atoms: _584  and  _585
REMARK  240  A    between atoms: _584  and  _587
REMARK  241  A    between atoms: _590  and  _592
REMARK  242  A    between atoms: _592  and  _593
REMARK  243  A    between atoms: _592  and  _595
REMARK  244  A    between atoms: _595  and  _596
REMARK  245  A    between atoms: _599  and  _601
REMARK  246  A    between atoms: _601  and  _602
REMARK  247  A    between atoms: _601  and  _604
REMARK  248  A    between atoms: _604  and  _605
REMARK  249  A    between atoms: _605  and  _606
REMARK  250  A    between atoms: _606  and  _607
REMARK  251  A    between atoms: _616  and  _618
REMARK  252  A    between atoms: _618  and  _619
REMARK  253  A    between atoms: _618  and  _621
REMARK  254  A    between atoms: _621  and  _622
REMARK  255  A    between atoms: _625  and  _627
REMARK  256  A    between atoms: _627  and  _628
REMARK  257  A    between atoms: _627  and  _630
REMARK  258  A    between atoms: _630  and  _631
REMARK  259  A    between atoms: _634  and  _636
REMARK  260  A    between atoms: _636  and  _637
REMARK  261  A    between atoms: _636  and  _639
REMARK  262  A    between atoms: _639  and  _640
REMARK                            x       y       z     vdW  Elec       q    Type
REMARK                         _______ _______ _______ _____ _____    ______ ____
ROOT
ATOM      1  O   HOH     1      -4.894  -0.829  -5.335  0.00  0.00    +0.000 OA
ENDROOT
TORSDOF 0
REMARK  Name = ../refined-set-2016/3a5y/3a5y_pocket.pdb
REMARK  262 active torsions:
REMARK  status: ('A' for Active; 'I' for Inactive)
REMARK    1  A    between atoms: _1  and  _3
REMARK    2  A    between atoms: _3  and  _4
REMARK    3  A    between atoms: _3  and  _6
REMARK    4  A    between atoms: _9  and  _11
REMARK    5  A    between atoms: _11  and  _12
REMARK    6  A    between atoms: _11  and  _14
REMARK    7  A    between atoms: _14  and  _15
REMARK    8  A    between atoms: _18  and  _20
REMARK    9  A    between atoms: _20  and  _21
REMARK   10  A    between atoms: _20  and  _23
REMARK   11  A    between atoms: _23  and  _24
REMARK   12  A    between atoms: _29  and  _31
REMARK   13  A    between atoms: _31  and  _32
REMARK   14  A    between atoms: _31  and  _34
REMARK   15  A    between atoms: _34  and  _35
REMARK   16  A    between atoms: _38  and  _40
REMARK   17  A    between atoms: _40  and  _41
REMARK   18  A    between atoms: _40  and  _43
REMARK   19  A    between atoms: _43  and  _44
REMARK   20  A    between atoms: _47  and  _49
REMARK   21  A    between atoms: _49  and  _50
REMARK   22  A    between atoms: _49  and  _52
REMARK   23  A    between atoms: _52  and  _53
REMARK   24  A    between atoms: _56  and  _57
REMARK   25  A    between atoms: _62  and  _64
REMARK   26  A    between atoms: _64  and  _65
REMARK   27  A    between atoms: _64  and  _67
REMARK   28  A    between atoms: _67  and  _68
REMARK   29  A    between atoms: _68  and  _69
REMARK   30  A    between atoms: _72  and  _74
REMARK   31  A    between atoms: _74  and  _75
REMARK   32  A    between atoms: _74  and  _77
REMARK   33  A    between atoms: _77  and  _78
REMARK   34  A    between atoms: _83  and  _84
REMARK   35  A    between atoms: _86  and  _88
REMARK   36  A    between atoms: _88  and  _89
REMARK   37  A    between atoms: _88  and  _91
REMARK   38  A    between atoms: _91  and  _92
REMARK   39  A    between atoms: _92  and  _93
REMARK   40  A    between atoms: _95  and  _97
REMARK   41  A    between atoms: _97  and  _98
REMARK   42  A    between atoms: _97  and  _100
REMARK   43  A    between atoms: _100  and  _101
REMARK   44  A    between atoms: _101  and  _102
REMARK   45  A    between atoms: _102  and  _103
REMARK   46  A    between atoms: _103  and  _104
REMARK   47  A    between atoms: _108  and  _110
REMARK   48  A    between atoms: _110  and  _111
REMARK   49  A    between atoms: _110  and  _113
REMARK   50  A    between atoms: _113  and  _114
REMARK   51  A    between atoms: _116  and  _118
REMARK   52  A    between atoms: _118  and  _119
REMARK   53  A    between atoms: _118  and  _121
REMARK   54  A    between atoms: _121  and  _122
REMARK   55  A    between atoms: _128  and  _130
REMARK   56  A    between atoms: _130  and  _131
REMARK   57  A    between atoms: _130  and  _133
REMARK   58  A    between atoms: _133  and  _134
REMARK   59  A    between atoms: _134  and  _135
REMARK   60  A    between atoms: _135  and  _136
REMARK   61  A    between atoms: _145  and  _147
REMARK   62  A    between atoms: _147  and  _148
REMARK   63  A    between atoms: _147  and  _150
REMARK   64  A    between atoms: _150  and  _151
REMARK   65  A    between atoms: _156  and  _158
REMARK   66  A    between atoms: _158  and  _159
REMARK   67  A    between atoms: _158  and  _161
REMARK   68  A    between atoms: _161  and  _162
REMARK   69  A    between atoms: _162  and  _163
REMARK   70  A    between atoms: _166  and  _168
REMARK   71  A    between atoms: _168  and  _169
REMARK   72  A    between atoms: _168  and  _171
REMARK   73  A    between atoms: _171  and  _172
REMARK   74  A    between atoms: _172  and  _173
REMARK   75  A    between atoms: _176  and  _178
REMARK   76  A    between atoms: _178  and  _179
REMARK   77  A    between atoms: _178  and  _181
REMARK   78  A    between atoms: _181  and  _182
REMARK   79  A    between atoms: _182  and  _183
REMARK   80  A    between atoms: _185  and  _187
REMARK   81  A    between atoms: _187  and  _188
REMARK   82  A    between atoms: _190  and  _192
REMARK   83  A    between atoms: _192  and  _193
REMARK   84  A    between atoms: _192  and  _195
REMARK   85  A    between atoms: _195  and  _196
REMARK   86  A    between atoms: _196  and  _197
REMARK   87  A    between atoms: _197  and  _198
REMARK   88  A    between atoms: _207  and  _209
REMARK   89  A    between atoms: _209  and  _210
REMARK   90  A    between atoms: _209  and  _212
REMARK   91  A    between atoms: _212  and  _213
REMARK   92  A    between atoms: _218  and  _219
REMARK   93  A    between atoms: _221  and  _223
REMARK   94  A    between atoms: _223  and  _224
REMARK   95  A    between atoms: _223  and  _226
REMARK   96  A    between atoms: _226  and  _227
REMARK   97  A    between atoms: _232  and  _234
REMARK   98  A    between atoms: _234  and  _235
REMARK   99  A    between atoms: _234  and  _237
REMARK  100  A    between atoms: _237  and  _238
REMARK  101  A    between atoms: _244  and  _245
REMARK  102  A    between atoms: _250  and  _252
REMARK  103  A    between atoms: _252  and  _253
REMARK  104  A    between atoms: _252  and  _255
REMARK  105  A    between atoms: _255  and  _256
REMARK  106  A    between atoms: _256  and  _257
REMARK  107  A    between atoms: _260  and  _262
REMARK  108  A    between atoms: _262  and  _263
REMARK  109  A    between atoms: _262  and  _265
REMARK  110  A    between atoms: _265  and  _266
REMARK  111  A    between atoms: _272  and  _274
REMARK  112  A    between atoms: _274  and  _275
REMARK  113  A    between atoms: _274  and  _277
REMARK  114  A    between atoms: _277  and  _278
REMARK  115  A    between atoms: _281  and  _283
REMARK  116  A    between atoms: _283  and  _284
REMARK  117  A    between atoms: _283  and  _286
REMARK  118  A    between atoms: _286  and  _287
REMARK  119  A    between atoms: _287  and  _288
REMARK  120  A    between atoms: _290  and  _292
REMARK  121  A    between atoms: _292  and  _293
REMARK  122  A    between atoms: _292  and  _295
REMARK  123  A    between atoms: _295  and  _296
REMARK  124  A    between atoms: _299  and  _301
REMARK  125  A    between atoms: _301  and  _302
REMARK  126  A    between atoms: _301  and  _304
REMARK  127  A    between atoms: _304  and  _305
REMARK  128  A    between atoms: _305  and  _306
REMARK  129  A    between atoms: _309  and  _311
REMARK  130  A    between atoms: _311  and  _312
REMARK  131  A    between atoms: _311  and  _314
REMARK  132  A    between atoms: _314  and  _315
REMARK  133  A    between atoms: _325  and  _327
REMARK  134  A    between atoms: _327  and  _328
REMARK  135  A    between atoms: _327  and  _330
REMARK  136  A    between atoms: _330  and  _331
REMARK  137  A    between atoms: _336  and  _337
REMARK  138  A    between atoms: _339  and  _341
REMARK  139  A    between atoms: _341  and  _342
REMARK  140  A    between atoms: _341  and  _344
REMARK  141  A    between atoms: _344  and  _345
REMARK  142  A    between atoms: _348  and  _350
REMARK  143  A    between atoms: _350  and  _351
REMARK  144  A    between atoms: _350  and  _353
REMARK  145  A    between atoms: _353  and  _354
REMARK  146  A    between atoms: _356  and  _358
REMARK  147  A    between atoms: _358  and  _359
REMARK  148  A    between atoms: _358  and  _361
REMARK  149  A    between atoms: _361  and  _362
REMARK  150  A    between atoms: _365  and  _367
REMARK  151  A    between atoms: _367  and  _368
REMARK  152  A    between atoms: _371  and  _373
REMARK  153  A    between atoms: _373  and  _374
REMARK  154  A    between atoms: _373  and  _376
REMARK  155  A    between atoms: _376  and  _377
REMARK  156  A    between atoms: _377  and  _378
REMARK  157  A    between atoms: _381  and  _383
REMARK  158  A    between atoms: _383  and  _384
REMARK  159  A    between atoms: _383  and  _386
REMARK  160  A    between atoms: _386  and  _387
REMARK  161  A    between atoms: _387  and  _388
REMARK  162  A    between atoms: _388  and  _389
REMARK  163  A    between atoms: _398  and  _400
REMARK  164  A    between atoms: _400  and  _401
REMARK  165  A    between atoms: _400  and  _403
REMARK  166  A    between atoms: _403  and  _404
REMARK  167  A    between atoms: _410  and  _412
REMARK  168  A    between atoms: _412  and  _413
REMARK  169  A    between atoms: _412  and  _415
REMARK  170  A    between atoms: _415  and  _416
REMARK  171  A    between atoms: _416  and  _417
REMARK  172  A    between atoms: _420  and  _422
REMARK  173  A    between atoms: _422  and  _423
REMARK  174  A    between atoms: _422  and  _425
REMARK  175  A    between atoms: _428  and  _430
REMARK  176  A    between atoms: _430  and  _431
REMARK  177  A    between atoms: _430  and  _433
REMARK  178  A    between atoms: _433  and  _434
REMARK  179  A    between atoms: _439  and  _440
REMARK  180  A    between atoms: _442  and  _444
REMARK  181  A    between atoms: _444  and  _445
REMARK  182  A    between atoms: _444  and  _447
REMARK  183  A    between atoms: _447  and  _448
REMARK  184  A    between atoms: _451  and  _453
REMARK  185  A    between atoms: _453  and  _454
REMARK  186  A    between atoms: _453  and  _456
REMARK  187  A    between atoms: _456  and  _457
REMARK  188  A    between atoms: _457  and  _458
REMARK  189  A    between atoms: _461  and  _463
REMARK  190  A    between atoms: _463  and  _464
REMARK  191  A    between atoms: _463  and  _466
REMARK  192  A    between atoms: _466  and  _467
REMARK  193  A    between atoms: _470  and  _472
REMARK  194  A    between atoms: _472  and  _473
REMARK  195  A    between atoms: _476  and  _478
REMARK  196  A    between atoms: _478  and  _479
REMARK  197  A    between atoms: _478  and  _481
REMARK  198  A    between atoms: _481  and  _482
REMARK  199  A    between atoms: _487  and  _489
REMARK  200  A    between atoms: _489  and  _490
REMARK  201  A    between atoms: _492  and  _494
REMARK  202  A    between atoms: _494  and  _495
REMARK  203  A    between atoms: _494  and  _497
REMARK  204  A    between atoms: _497  and  _498
REMARK  205  A    between atoms: _504  and  _506
REMARK  206  A    between atoms: _506  and  _507
REMARK  207  A    between atoms: _506  and  _509
REMARK  208  A    between atoms: _509  and  _510
REMARK  209  A    between atoms: _515  and  _517
REMARK  210  A    between atoms: _517  and  _518
REMARK  211  A    between atoms: _517  and  _520
REMARK  212  A    between atoms: _520  and  _521
REMARK  213  A    between atoms: _521  and  _522
REMARK  214  A    between atoms: _525  and  _527
REMARK  215  A    between atoms: _527  and  _528
REMARK  216  A    between atoms: _527  and  _530
REMARK  217  A    between atoms: _530  and  _531
REMARK  218  A    between atoms: _534  and  _536
REMARK  219  A    between atoms: _536  and  _537
REMARK  220  A    between atoms: _536  and  _539
REMARK  221  A    between atoms: _541  and  _543
REMARK  222  A    between atoms: _543  and  _544
REMARK  223  A    between atoms: _543  and  _546
REMARK  224  A    between atoms: _546  and  _547
REMARK  225  A    between atoms: _549  and  _551
REMARK  226  A    between atoms: _551  and  _552
REMARK  227  A    between atoms: _554  and  _556
REMARK  228  A    between atoms: _556  and  _557
REMARK  229  A    between atoms: _556  and  _559
REMARK  230  A    between atoms: _562  and  _564
REMARK  231  A    between atoms: _564  and  _565
REMARK  232  A    between atoms: _568  and  _570
REMARK  233  A    between atoms: _570  and  _571
REMARK  234  A    between atoms: _570  and  _573
REMARK  235  A    between atoms: _573  and  _574
REMARK  236  A    between atoms: _577  and  _579
REMARK  237  A    between atoms: _579  and  _580
REMARK  238  A    between atoms: _582  and  _584
REMARK  239  A    between atoms: _584  and  _585
REMARK  240  A    between atoms: _584  and  _587
REMARK  241  A    between atoms: _590  and  _592
REMARK  242  A    between atoms: _592  and  _593
REMARK  243  A    between atoms: _592  and  _595
REMARK  244  A    between atoms: _595  and  _596
REMARK  245  A    between atoms: _599  and  _601
REMARK  246  A    between atoms: _601  and  _602
REMARK  247  A    between atoms: _601  and  _604
REMARK  248  A    between atoms: _604  and  _605
REMARK  249  A    between atoms: _605  and  _606
REMARK  250  A    between atoms: _606  and  _607
REMARK  251  A    between atoms: _616  and  _618
REMARK  252  A    between atoms: _618  and  _619
REMARK  253  A    between atoms: _618  and  _621
REMARK  254  A    between atoms: _621  and  _622
REMARK  255  A    between atoms: _625  and  _627
REMARK  256  A    between atoms: _627  and  _628
REMARK  257  A    between atoms: _627  and  _630
REMARK  258  A    between atoms: _630  and  _631
REMARK  259  A    between atoms: _634  and  _636
REMARK  260  A    between atoms: _636  and  _637
REMARK  261  A    between atoms: _636  and  _639
REMARK  262  A    between atoms: _639  and  _640
REMARK                            x       y       z     vdW  Elec       q    Type
REMARK                         _______ _______ _______ _____ _____    ______ ____
ROOT
ATOM      1  O   HOH     1     -10.510  -2.000  -3.695  0.00  0.00    +0.000 OA
ENDROOT
TORSDOF 0
REMARK  Name = ../refined-set-2016/3a5y/3a5y_pocket.pdb
REMARK  262 active torsions:
REMARK  status: ('A' for Active; 'I' for Inactive)
REMARK    1  A    between atoms: _1  and  _3
REMARK    2  A    between atoms: _3  and  _4
REMARK    3  A    between atoms: _3  and  _6
REMARK    4  A    between atoms: _9  and  _11
REMARK    5  A    between atoms: _11  and  _12
REMARK    6  A    between atoms: _11  and  _14
REMARK    7  A    between atoms: _14  and  _15
REMARK    8  A    between atoms: _18  and  _20
REMARK    9  A    between atoms: _20  and  _21
REMARK   10  A    between atoms: _20  and  _23
REMARK   11  A    between atoms: _23  and  _24
REMARK   12  A    between atoms: _29  and  _31
REMARK   13  A    between atoms: _31  and  _32
REMARK   14  A    between atoms: _31  and  _34
REMARK   15  A    between atoms: _34  and  _35
REMARK   16  A    between atoms: _38  and  _40
REMARK   17  A    between atoms: _40  and  _41
REMARK   18  A    between atoms: _40  and  _43
REMARK   19  A    between atoms: _43  and  _44
REMARK   20  A    between atoms: _47  and  _49
REMARK   21  A    between atoms: _49  and  _50
REMARK   22  A    between atoms: _49  and  _52
REMARK   23  A    between atoms: _52  and  _53
REMARK   24  A    between atoms: _56  and  _57
REMARK   25  A    between atoms: _62  and  _64
REMARK   26  A    between atoms: _64  and  _65
REMARK   27  A    between atoms: _64  and  _67
REMARK   28  A    between atoms: _67  and  _68
REMARK   29  A    between atoms: _68  and  _69
REMARK   30  A    between atoms: _72  and  _74
REMARK   31  A    between atoms: _74  and  _75
REMARK   32  A    between atoms: _74  and  _77
REMARK   33  A    between atoms: _77  and  _78
REMARK   34  A    between atoms: _83  and  _84
REMARK   35  A    between atoms: _86  and  _88
REMARK   36  A    between atoms: _88  and  _89
REMARK   37  A    between atoms: _88  and  _91
REMARK   38  A    between atoms: _91  and  _92
REMARK   39  A    between atoms: _92  and  _93
REMARK   40  A    between atoms: _95  and  _97
REMARK   41  A    between atoms: _97  and  _98
REMARK   42  A    between atoms: _97  and  _100
REMARK   43  A    between atoms: _100  and  _101
REMARK   44  A    between atoms: _101  and  _102
REMARK   45  A    between atoms: _102  and  _103
REMARK   46  A    between atoms: _103  and  _104
REMARK   47  A    between atoms: _108  and  _110
REMARK   48  A    between atoms: _110  and  _111
REMARK   49  A    between atoms: _110  and  _113
REMARK   50  A    between atoms: _113  and  _114
REMARK   51  A    between atoms: _116  and  _118
REMARK   52  A    between atoms: _118  and  _119
REMARK   53  A    between atoms: _118  and  _121
REMARK   54  A    between atoms: _121  and  _122
REMARK   55  A    between atoms: _128  and  _130
REMARK   56  A    between atoms: _130  and  _131
REMARK   57  A    between atoms: _130  and  _133
REMARK   58  A    between atoms: _133  and  _134
REMARK   59  A    between atoms: _134  and  _135
REMARK   60  A    between atoms: _135  and  _136
REMARK   61  A    between atoms: _145  and  _147
REMARK   62  A    between atoms: _147  and  _148
REMARK   63  A    between atoms: _147  and  _150
REMARK   64  A    between atoms: _150  and  _151
REMARK   65  A    between atoms: _156  and  _158
REMARK   66  A    between atoms: _158  and  _159
REMARK   67  A    between atoms: _158  and  _161
REMARK   68  A    between atoms: _161  and  _162
REMARK   69  A    between atoms: _162  and  _163
REMARK   70  A    between atoms: _166  and  _168
REMARK   71  A    between atoms: _168  and  _169
REMARK   72  A    between atoms: _168  and  _171
REMARK   73  A    between atoms: _171  and  _172
REMARK   74  A    between atoms: _172  and  _173
REMARK   75  A    between atoms: _176  and  _178
REMARK   76  A    between atoms: _178  and  _179
REMARK   77  A    between atoms: _178  and  _181
REMARK   78  A    between atoms: _181  and  _182
REMARK   79  A    between atoms: _182  and  _183
REMARK   80  A    between atoms: _185  and  _187
REMARK   81  A    between atoms: _187  and  _188
REMARK   82  A    between atoms: _190  and  _192
REMARK   83  A    between atoms: _192  and  _193
REMARK   84  A    between atoms: _192  and  _195
REMARK   85  A    between atoms: _195  and  _196
REMARK   86  A    between atoms: _196  and  _197
REMARK   87  A    between atoms: _197  and  _198
REMARK   88  A    between atoms: _207  and  _209
REMARK   89  A    between atoms: _209  and  _210
REMARK   90  A    between atoms: _209  and  _212
REMARK   91  A    between atoms: _212  and  _213
REMARK   92  A    between atoms: _218  and  _219
REMARK   93  A    between atoms: _221  and  _223
REMARK   94  A    between atoms: _223  and  _224
REMARK   95  A    between atoms: _223  and  _226
REMARK   96  A    between atoms: _226  and  _227
REMARK   97  A    between atoms: _232  and  _234
REMARK   98  A    between atoms: _234  and  _235
REMARK   99  A    between atoms: _234  and  _237
REMARK  100  A    between atoms: _237  and  _238
REMARK  101  A    between atoms: _244  and  _245
REMARK  102  A    between atoms: _250  and  _252
REMARK  103  A    between atoms: _252  and  _253
REMARK  104  A    between atoms: _252  and  _255
REMARK  105  A    between atoms: _255  and  _256
REMARK  106  A    between atoms: _256  and  _257
REMARK  107  A    between atoms: _260  and  _262
REMARK  108  A    between atoms: _262  and  _263
REMARK  109  A    between atoms: _262  and  _265
REMARK  110  A    between atoms: _265  and  _266
REMARK  111  A    between atoms: _272  and  _274
REMARK  112  A    between atoms: _274  and  _275
REMARK  113  A    between atoms: _274  and  _277
REMARK  114  A    between atoms: _277  and  _278
REMARK  115  A    between atoms: _281  and  _283
REMARK  116  A    between atoms: _283  and  _284
REMARK  117  A    between atoms: _283  and  _286
REMARK  118  A    between atoms: _286  and  _287
REMARK  119  A    between atoms: _287  and  _288
REMARK  120  A    between atoms: _290  and  _292
REMARK  121  A    between atoms: _292  and  _293
REMARK  122  A    between atoms: _292  and  _295
REMARK  123  A    between atoms: _295  and  _296
REMARK  124  A    between atoms: _299  and  _301
REMARK  125  A    between atoms: _301  and  _302
REMARK  126  A    between atoms: _301  and  _304
REMARK  127  A    between atoms: _304  and  _305
REMARK  128  A    between atoms: _305  and  _306
REMARK  129  A    between atoms: _309  and  _311
REMARK  130  A    between atoms: _311  and  _312
REMARK  131  A    between atoms: _311  and  _314
REMARK  132  A    between atoms: _314  and  _315
REMARK  133  A    between atoms: _325  and  _327
REMARK  134  A    between atoms: _327  and  _328
REMARK  135  A    between atoms: _327  and  _330
REMARK  136  A    between atoms: _330  and  _331
REMARK  137  A    between atoms: _336  and  _337
REMARK  138  A    between atoms: _339  and  _341
REMARK  139  A    between atoms: _341  and  _342
REMARK  140  A    between atoms: _341  and  _344
REMARK  141  A    between atoms: _344  and  _345
REMARK  142  A    between atoms: _348  and  _350
REMARK  143  A    between atoms: _350  and  _351
REMARK  144  A    between atoms: _350  and  _353
REMARK  145  A    between atoms: _353  and  _354
REMARK  146  A    between atoms: _356  and  _358
REMARK  147  A    between atoms: _358  and  _359
REMARK  148  A    between atoms: _358  and  _361
REMARK  149  A    between atoms: _361  and  _362
REMARK  150  A    between atoms: _365  and  _367
REMARK  151  A    between atoms: _367  and  _368
REMARK  152  A    between atoms: _371  and  _373
REMARK  153  A    between atoms: _373  and  _374
REMARK  154  A    between atoms: _373  and  _376
REMARK  155  A    between atoms: _376  and  _377
REMARK  156  A    between atoms: _377  and  _378
REMARK  157  A    between atoms: _381  and  _383
REMARK  158  A    between atoms: _383  and  _384
REMARK  159  A    between atoms: _383  and  _386
REMARK  160  A    between atoms: _386  and  _387
REMARK  161  A    between atoms: _387  and  _388
REMARK  162  A    between atoms: _388  and  _389
REMARK  163  A    between atoms: _398  and  _400
REMARK  164  A    between atoms: _400  and  _401
REMARK  165  A    between atoms: _400  and  _403
REMARK  166  A    between atoms: _403  and  _404
REMARK  167  A    between atoms: _410  and  _412
REMARK  168  A    between atoms: _412  and  _413
REMARK  169  A    between atoms: _412  and  _415
REMARK  170  A    between atoms: _415  and  _416
REMARK  171  A    between atoms: _416  and  _417
REMARK  172  A    between atoms: _420  and  _422
REMARK  173  A    between atoms: _422  and  _423
REMARK  174  A    between atoms: _422  and  _425
REMARK  175  A    between atoms: _428  and  _430
REMARK  176  A    between atoms: _430  and  _431
REMARK  177  A    between atoms: _430  and  _433
REMARK  178  A    between atoms: _433  and  _434
REMARK  179  A    between atoms: _439  and  _440
REMARK  180  A    between atoms: _442  and  _444
REMARK  181  A    between atoms: _444  and  _445
REMARK  182  A    between atoms: _444  and  _447
REMARK  183  A    between atoms: _447  and  _448
REMARK  184  A    between atoms: _451  and  _453
REMARK  185  A    between atoms: _453  and  _454
REMARK  186  A    between atoms: _453  and  _456
REMARK  187  A    between atoms: _456  and  _457
REMARK  188  A    between atoms: _457  and  _458
REMARK  189  A    between atoms: _461  and  _463
REMARK  190  A    between atoms: _463  and  _464
REMARK  191  A    between atoms: _463  and  _466
REMARK  192  A    between atoms: _466  and  _467
REMARK  193  A    between atoms: _470  and  _472
REMARK  194  A    between atoms: _472  and  _473
REMARK  195  A    between atoms: _476  and  _478
REMARK  196  A    between atoms: _478  and  _479
REMARK  197  A    between atoms: _478  and  _481
REMARK  198  A    between atoms: _481  and  _482
REMARK  199  A    between atoms: _487  and  _489
REMARK  200  A    between atoms: _489  and  _490
REMARK  201  A    between atoms: _492  and  _494
REMARK  202  A    between atoms: _494  and  _495
REMARK  203  A    between atoms: _494  and  _497
REMARK  204  A    between atoms: _497  and  _498
REMARK  205  A    between atoms: _504  and  _506
REMARK  206  A    between atoms: _506  and  _507
REMARK  207  A    between atoms: _506  and  _509
REMARK  208  A    between atoms: _509  and  _510
REMARK  209  A    between atoms: _515  and  _517
REMARK  210  A    between atoms: _517  and  _518
REMARK  211  A    between atoms: _517  and  _520
REMARK  212  A    between atoms: _520  and  _521
REMARK  213  A    between atoms: _521  and  _522
REMARK  214  A    between atoms: _525  and  _527
REMARK  215  A    between atoms: _527  and  _528
REMARK  216  A    between atoms: _527  and  _530
REMARK  217  A    between atoms: _530  and  _531
REMARK  218  A    between atoms: _534  and  _536
REMARK  219  A    between atoms: _536  and  _537
REMARK  220  A    between atoms: _536  and  _539
REMARK  221  A    between atoms: _541  and  _543
REMARK  222  A    between atoms: _543  and  _544
REMARK  223  A    between atoms: _543  and  _546
REMARK  224  A    between atoms: _546  and  _547
REMARK  225  A    between atoms: _549  and  _551
REMARK  226  A    between atoms: _551  and  _552
REMARK  227  A    between atoms: _554  and  _556
REMARK  228  A    between atoms: _556  and  _557
REMARK  229  A    between atoms: _556  and  _559
REMARK  230  A    between atoms: _562  and  _564
REMARK  231  A    between atoms: _564  and  _565
REMARK  232  A    between atoms: _568  and  _570
REMARK  233  A    between atoms: _570  and  _571
REMARK  234  A    between atoms: _570  and  _573
REMARK  235  A    between atoms: _573  and  _574
REMARK  236  A    between atoms: _577  and  _579
REMARK  237  A    between atoms: _579  and  _580
REMARK  238  A    between atoms: _582  and  _584
REMARK  239  A    between atoms: _584  and  _585
REMARK  240  A    between atoms: _584  and  _587
REMARK  241  A    between atoms: _590  and  _592
REMARK  242  A    between atoms: _592  and  _593
REMARK  243  A    between atoms: _592  and  _595
REMARK  244  A    between atoms: _595  and  _596
REMARK  245  A    between atoms: _599  and  _601
REMARK  246  A    between atoms: _601  and  _602
REMARK  247  A    between atoms: _601  and  _604
REMARK  248  A    between atoms: _604  and  _605
REMARK  249  A    between atoms: _605  and  _606
REMARK  250  A    between atoms: _606  and  _607
REMARK  251  A    between atoms: _616  and  _618
REMARK  252  A    between atoms: _618  and  _619
REMARK  253  A    between atoms: _618  and  _621
REMARK  254  A    between atoms: _621  and  _622
REMARK  255  A    between atoms: _625  and  _627
REMARK  256  A    between atoms: _627  and  _628
REMARK  257  A    between atoms: _627  and  _630
REMARK  258  A    between atoms: _630  and  _631
REMARK  259  A    between atoms: _634  and  _636
REMARK  260  A    between atoms: _636  and  _637
REMARK  261  A    between atoms: _636  and  _639
REMARK  262  A    between atoms: _639  and  _640
REMARK                            x       y       z     vdW  Elec       q    Type
REMARK                         _______ _______ _______ _____ _____    ______ ____
ROOT
ATOM      1  O   HOH     1      -3.841   0.306 -11.468  0.00  0.00    +0.000 OA
ENDROOT
TORSDOF 0
REMARK  Name = ../refined-set-2016/3a5y/3a5y_pocket.pdb
REMARK  262 active torsions:
REMARK  status: ('A' for Active; 'I' for Inactive)
REMARK    1  A    between atoms: _1  and  _3
REMARK    2  A    between atoms: _3  and  _4
REMARK    3  A    between atoms: _3  and  _6
REMARK    4  A    between atoms: _9  and  _11
REMARK    5  A    between atoms: _11  and  _12
REMARK    6  A    between atoms: _11  and  _14
REMARK    7  A    between atoms: _14  and  _15
REMARK    8  A    between atoms: _18  and  _20
REMARK    9  A    between atoms: _20  and  _21
REMARK   10  A    between atoms: _20  and  _23
REMARK   11  A    between atoms: _23  and  _24
REMARK   12  A    between atoms: _29  and  _31
REMARK   13  A    between atoms: _31  and  _32
REMARK   14  A    between atoms: _31  and  _34
REMARK   15  A    between atoms: _34  and  _35
REMARK   16  A    between atoms: _38  and  _40
REMARK   17  A    between atoms: _40  and  _41
REMARK   18  A    between atoms: _40  and  _43
REMARK   19  A    between atoms: _43  and  _44
REMARK   20  A    between atoms: _47  and  _49
REMARK   21  A    between atoms: _49  and  _50
REMARK   22  A    between atoms: _49  and  _52
REMARK   23  A    between atoms: _52  and  _53
REMARK   24  A    between atoms: _56  and  _57
REMARK   25  A    between atoms: _62  and  _64
REMARK   26  A    between atoms: _64  and  _65
REMARK   27  A    between atoms: _64  and  _67
REMARK   28  A    between atoms: _67  and  _68
REMARK   29  A    between atoms: _68  and  _69
REMARK   30  A    between atoms: _72  and  _74
REMARK   31  A    between atoms: _74  and  _75
REMARK   32  A    between atoms: _74  and  _77
REMARK   33  A    between atoms: _77  and  _78
REMARK   34  A    between atoms: _83  and  _84
REMARK   35  A    between atoms: _86  and  _88
REMARK   36  A    between atoms: _88  and  _89
REMARK   37  A    between atoms: _88  and  _91
REMARK   38  A    between atoms: _91  and  _92
REMARK   39  A    between atoms: _92  and  _93
REMARK   40  A    between atoms: _95  and  _97
REMARK   41  A    between atoms: _97  and  _98
REMARK   42  A    between atoms: _97  and  _100
REMARK   43  A    between atoms: _100  and  _101
REMARK   44  A    between atoms: _101  and  _102
REMARK   45  A    between atoms: _102  and  _103
REMARK   46  A    between atoms: _103  and  _104
REMARK   47  A    between atoms: _108  and  _110
REMARK   48  A    between atoms: _110  and  _111
REMARK   49  A    between atoms: _110  and  _113
REMARK   50  A    between atoms: _113  and  _114
REMARK   51  A    between atoms: _116  and  _118
REMARK   52  A    between atoms: _118  and  _119
REMARK   53  A    between atoms: _118  and  _121
REMARK   54  A    between atoms: _121  and  _122
REMARK   55  A    between atoms: _128  and  _130
REMARK   56  A    between atoms: _130  and  _131
REMARK   57  A    between atoms: _130  and  _133
REMARK   58  A    between atoms: _133  and  _134
REMARK   59  A    between atoms: _134  and  _135
REMARK   60  A    between atoms: _135  and  _136
REMARK   61  A    between atoms: _145  and  _147
REMARK   62  A    between atoms: _147  and  _148
REMARK   63  A    between atoms: _147  and  _150
REMARK   64  A    between atoms: _150  and  _151
REMARK   65  A    between atoms: _156  and  _158
REMARK   66  A    between atoms: _158  and  _159
REMARK   67  A    between atoms: _158  and  _161
REMARK   68  A    between atoms: _161  and  _162
REMARK   69  A    between atoms: _162  and  _163
REMARK   70  A    between atoms: _166  and  _168
REMARK   71  A    between atoms: _168  and  _169
REMARK   72  A    between atoms: _168  and  _171
REMARK   73  A    between atoms: _171  and  _172
REMARK   74  A    between atoms: _172  and  _173
REMARK   75  A    between atoms: _176  and  _178
REMARK   76  A    between atoms: _178  and  _179
REMARK   77  A    between atoms: _178  and  _181
REMARK   78  A    between atoms: _181  and  _182
REMARK   79  A    between atoms: _182  and  _183
REMARK   80  A    between atoms: _185  and  _187
REMARK   81  A    between atoms: _187  and  _188
REMARK   82  A    between atoms: _190  and  _192
REMARK   83  A    between atoms: _192  and  _193
REMARK   84  A    between atoms: _192  and  _195
REMARK   85  A    between atoms: _195  and  _196
REMARK   86  A    between atoms: _196  and  _197
REMARK   87  A    between atoms: _197  and  _198
REMARK   88  A    between atoms: _207  and  _209
REMARK   89  A    between atoms: _209  and  _210
REMARK   90  A    between atoms: _209  and  _212
REMARK   91  A    between atoms: _212  and  _213
REMARK   92  A    between atoms: _218  and  _219
REMARK   93  A    between atoms: _221  and  _223
REMARK   94  A    between atoms: _223  and  _224
REMARK   95  A    between atoms: _223  and  _226
REMARK   96  A    between atoms: _226  and  _227
REMARK   97  A    between atoms: _232  and  _234
REMARK   98  A    between atoms: _234  and  _235
REMARK   99  A    between atoms: _234  and  _237
REMARK  100  A    between atoms: _237  and  _238
REMARK  101  A    between atoms: _244  and  _245
REMARK  102  A    between atoms: _250  and  _252
REMARK  103  A    between atoms: _252  and  _253
REMARK  104  A    between atoms: _252  and  _255
REMARK  105  A    between atoms: _255  and  _256
REMARK  106  A    between atoms: _256  and  _257
REMARK  107  A    between atoms: _260  and  _262
REMARK  108  A    between atoms: _262  and  _263
REMARK  109  A    between atoms: _262  and  _265
REMARK  110  A    between atoms: _265  and  _266
REMARK  111  A    between atoms: _272  and  _274
REMARK  112  A    between atoms: _274  and  _275
REMARK  113  A    between atoms: _274  and  _277
REMARK  114  A    between atoms: _277  and  _278
REMARK  115  A    between atoms: _281  and  _283
REMARK  116  A    between atoms: _283  and  _284
REMARK  117  A    between atoms: _283  and  _286
REMARK  118  A    between atoms: _286  and  _287
REMARK  119  A    between atoms: _287  and  _288
REMARK  120  A    between atoms: _290  and  _292
REMARK  121  A    between atoms: _292  and  _293
REMARK  122  A    between atoms: _292  and  _295
REMARK  123  A    between atoms: _295  and  _296
REMARK  124  A    between atoms: _299  and  _301
REMARK  125  A    between atoms: _301  and  _302
REMARK  126  A    between atoms: _301  and  _304
REMARK  127  A    between atoms: _304  and  _305
REMARK  128  A    between atoms: _305  and  _306
REMARK  129  A    between atoms: _309  and  _311
REMARK  130  A    between atoms: _311  and  _312
REMARK  131  A    between atoms: _311  and  _314
REMARK  132  A    between atoms: _314  and  _315
REMARK  133  A    between atoms: _325  and  _327
REMARK  134  A    between atoms: _327  and  _328
REMARK  135  A    between atoms: _327  and  _330
REMARK  136  A    between atoms: _330  and  _331
REMARK  137  A    between atoms: _336  and  _337
REMARK  138  A    between atoms: _339  and  _341
REMARK  139  A    between atoms: _341  and  _342
REMARK  140  A    between atoms: _341  and  _344
REMARK  141  A    between atoms: _344  and  _345
REMARK  142  A    between atoms: _348  and  _350
REMARK  143  A    between atoms: _350  and  _351
REMARK  144  A    between atoms: _350  and  _353
REMARK  145  A    between atoms: _353  and  _354
REMARK  146  A    between atoms: _356  and  _358
REMARK  147  A    between atoms: _358  and  _359
REMARK  148  A    between atoms: _358  and  _361
REMARK  149  A    between atoms: _361  and  _362
REMARK  150  A    between atoms: _365  and  _367
REMARK  151  A    between atoms: _367  and  _368
REMARK  152  A    between atoms: _371  and  _373
REMARK  153  A    between atoms: _373  and  _374
REMARK  154  A    between atoms: _373  and  _376
REMARK  155  A    between atoms: _376  and  _377
REMARK  156  A    between atoms: _377  and  _378
REMARK  157  A    between atoms: _381  and  _383
REMARK  158  A    between atoms: _383  and  _384
REMARK  159  A    between atoms: _383  and  _386
REMARK  160  A    between atoms: _386  and  _387
REMARK  161  A    between atoms: _387  and  _388
REMARK  162  A    between atoms: _388  and  _389
REMARK  163  A    between atoms: _398  and  _400
REMARK  164  A    between atoms: _400  and  _401
REMARK  165  A    between atoms: _400  and  _403
REMARK  166  A    between atoms: _403  and  _404
REMARK  167  A    between atoms: _410  and  _412
REMARK  168  A    between atoms: _412  and  _413
REMARK  169  A    between atoms: _412  and  _415
REMARK  170  A    between atoms: _415  and  _416
REMARK  171  A    between atoms: _416  and  _417
REMARK  172  A    between atoms: _420  and  _422
REMARK  173  A    between atoms: _422  and  _423
REMARK  174  A    between atoms: _422  and  _425
REMARK  175  A    between atoms: _428  and  _430
REMARK  176  A    between atoms: _430  and  _431
REMARK  177  A    between atoms: _430  and  _433
REMARK  178  A    between atoms: _433  and  _434
REMARK  179  A    between atoms: _439  and  _440
REMARK  180  A    between atoms: _442  and  _444
REMARK  181  A    between atoms: _444  and  _445
REMARK  182  A    between atoms: _444  and  _447
REMARK  183  A    between atoms: _447  and  _448
REMARK  184  A    between atoms: _451  and  _453
REMARK  185  A    between atoms: _453  and  _454
REMARK  186  A    between atoms: _453  and  _456
REMARK  187  A    between atoms: _456  and  _457
REMARK  188  A    between atoms: _457  and  _458
REMARK  189  A    between atoms: _461  and  _463
REMARK  190  A    between atoms: _463  and  _464
REMARK  191  A    between atoms: _463  and  _466
REMARK  192  A    between atoms: _466  and  _467
REMARK  193  A    between atoms: _470  and  _472
REMARK  194  A    between atoms: _472  and  _473
REMARK  195  A    between atoms: _476  and  _478
REMARK  196  A    between atoms: _478  and  _479
REMARK  197  A    between atoms: _478  and  _481
REMARK  198  A    between atoms: _481  and  _482
REMARK  199  A    between atoms: _487  and  _489
REMARK  200  A    between atoms: _489  and  _490
REMARK  201  A    between atoms: _492  and  _494
REMARK  202  A    between atoms: _494  and  _495
REMARK  203  A    between atoms: _494  and  _497
REMARK  204  A    between atoms: _497  and  _498
REMARK  205  A    between atoms: _504  and  _506
REMARK  206  A    between atoms: _506  and  _507
REMARK  207  A    between atoms: _506  and  _509
REMARK  208  A    between atoms: _509  and  _510
REMARK  209  A    between atoms: _515  and  _517
REMARK  210  A    between atoms: _517  and  _518
REMARK  211  A    between atoms: _517  and  _520
REMARK  212  A    between atoms: _520  and  _521
REMARK  213  A    between atoms: _521  and  _522
REMARK  214  A    between atoms: _525  and  _527
REMARK  215  A    between atoms: _527  and  _528
REMARK  216  A    between atoms: _527  and  _530
REMARK  217  A    between atoms: _530  and  _531
REMARK  218  A    between atoms: _534  and  _536
REMARK  219  A    between atoms: _536  and  _537
REMARK  220  A    between atoms: _536  and  _539
REMARK  221  A    between atoms: _541  and  _543
REMARK  222  A    between atoms: _543  and  _544
REMARK  223  A    between atoms: _543  and  _546
REMARK  224  A    between atoms: _546  and  _547
REMARK  225  A    between atoms: _549  and  _551
REMARK  226  A    between atoms: _551  and  _552
REMARK  227  A    between atoms: _554  and  _556
REMARK  228  A    between atoms: _556  and  _557
REMARK  229  A    between atoms: _556  and  _559
REMARK  230  A    between atoms: _562  and  _564
REMARK  231  A    between atoms: _564  and  _565
REMARK  232  A    between atoms: _568  and  _570
REMARK  233  A    between atoms: _570  and  _571
REMARK  234  A    between atoms: _570  and  _573
REMARK  235  A    between atoms: _573  and  _574
REMARK  236  A    between atoms: _577  and  _579
REMARK  237  A    between atoms: _579  and  _580
REMARK  238  A    between atoms: _582  and  _584
REMARK  239  A    between atoms: _584  and  _585
REMARK  240  A    between atoms: _584  and  _587
REMARK  241  A    between atoms: _590  and  _592
REMARK  242  A    between atoms: _592  and  _593
REMARK  243  A    between atoms: _592  and  _595
REMARK  244  A    between atoms: _595  and  _596
REMARK  245  A    between atoms: _599  and  _601
REMARK  246  A    between atoms: _601  and  _602
REMARK  247  A    between atoms: _601  and  _604
REMARK  248  A    between atoms: _604  and  _605
REMARK  249  A    between atoms: _605  and  _606
REMARK  250  A    between atoms: _606  and  _607
REMARK  251  A    between atoms: _616  and  _618
REMARK  252  A    between atoms: _618  and  _619
REMARK  253  A    between atoms: _618  and  _621
REMARK  254  A    between atoms: _621  and  _622
REMARK  255  A    between atoms: _625  and  _627
REMARK  256  A    between atoms: _627  and  _628
REMARK  257  A    between atoms: _627  and  _630
REMARK  258  A    between atoms: _630  and  _631
REMARK  259  A    between atoms: _634  and  _636
REMARK  260  A    between atoms: _636  and  _637
REMARK  261  A    between atoms: _636  and  _639
REMARK  262  A    between atoms: _639  and  _640
REMARK                            x       y       z     vdW  Elec       q    Type
REMARK                         _______ _______ _______ _____ _____    ______ ____
ROOT
ATOM      1  O   HOH     1       1.352   2.361 -16.321  0.00  0.00    +0.000 OA
ENDROOT
TORSDOF 0
REMARK  Name = ../refined-set-2016/3a5y/3a5y_pocket.pdb
REMARK  262 active torsions:
REMARK  status: ('A' for Active; 'I' for Inactive)
REMARK    1  A    between atoms: _1  and  _3
REMARK    2  A    between atoms: _3  and  _4
REMARK    3  A    between atoms: _3  and  _6
REMARK    4  A    between atoms: _9  and  _11
REMARK    5  A    between atoms: _11  and  _12
REMARK    6  A    between atoms: _11  and  _14
REMARK    7  A    between atoms: _14  and  _15
REMARK    8  A    between atoms: _18  and  _20
REMARK    9  A    between atoms: _20  and  _21
REMARK   10  A    between atoms: _20  and  _23
REMARK   11  A    between atoms: _23  and  _24
REMARK   12  A    between atoms: _29  and  _31
REMARK   13  A    between atoms: _31  and  _32
REMARK   14  A    between atoms: _31  and  _34
REMARK   15  A    between atoms: _34  and  _35
REMARK   16  A    between atoms: _38  and  _40
REMARK   17  A    between atoms: _40  and  _41
REMARK   18  A    between atoms: _40  and  _43
REMARK   19  A    between atoms: _43  and  _44
REMARK   20  A    between atoms: _47  and  _49
REMARK   21  A    between atoms: _49  and  _50
REMARK   22  A    between atoms: _49  and  _52
REMARK   23  A    between atoms: _52  and  _53
REMARK   24  A    between atoms: _56  and  _57
REMARK   25  A    between atoms: _62  and  _64
REMARK   26  A    between atoms: _64  and  _65
REMARK   27  A    between atoms: _64  and  _67
REMARK   28  A    between atoms: _67  and  _68
REMARK   29  A    between atoms: _68  and  _69
REMARK   30  A    between atoms: _72  and  _74
REMARK   31  A    between atoms: _74  and  _75
REMARK   32  A    between atoms: _74  and  _77
REMARK   33  A    between atoms: _77  and  _78
REMARK   34  A    between atoms: _83  and  _84
REMARK   35  A    between atoms: _86  and  _88
REMARK   36  A    between atoms: _88  and  _89
REMARK   37  A    between atoms: _88  and  _91
REMARK   38  A    between atoms: _91  and  _92
REMARK   39  A    between atoms: _92  and  _93
REMARK   40  A    between atoms: _95  and  _97
REMARK   41  A    between atoms: _97  and  _98
REMARK   42  A    between atoms: _97  and  _100
REMARK   43  A    between atoms: _100  and  _101
REMARK   44  A    between atoms: _101  and  _102
REMARK   45  A    between atoms: _102  and  _103
REMARK   46  A    between atoms: _103  and  _104
REMARK   47  A    between atoms: _108  and  _110
REMARK   48  A    between atoms: _110  and  _111
REMARK   49  A    between atoms: _110  and  _113
REMARK   50  A    between atoms: _113  and  _114
REMARK   51  A    between atoms: _116  and  _118
REMARK   52  A    between atoms: _118  and  _119
REMARK   53  A    between atoms: _118  and  _121
REMARK   54  A    between atoms: _121  and  _122
REMARK   55  A    between atoms: _128  and  _130
REMARK   56  A    between atoms: _130  and  _131
REMARK   57  A    between atoms: _130  and  _133
REMARK   58  A    between atoms: _133  and  _134
REMARK   59  A    between atoms: _134  and  _135
REMARK   60  A    between atoms: _135  and  _136
REMARK   61  A    between atoms: _145  and  _147
REMARK   62  A    between atoms: _147  and  _148
REMARK   63  A    between atoms: _147  and  _150
REMARK   64  A    between atoms: _150  and  _151
REMARK   65  A    between atoms: _156  and  _158
REMARK   66  A    between atoms: _158  and  _159
REMARK   67  A    between atoms: _158  and  _161
REMARK   68  A    between atoms: _161  and  _162
REMARK   69  A    between atoms: _162  and  _163
REMARK   70  A    between atoms: _166  and  _168
REMARK   71  A    between atoms: _168  and  _169
REMARK   72  A    between atoms: _168  and  _171
REMARK   73  A    between atoms: _171  and  _172
REMARK   74  A    between atoms: _172  and  _173
REMARK   75  A    between atoms: _176  and  _178
REMARK   76  A    between atoms: _178  and  _179
REMARK   77  A    between atoms: _178  and  _181
REMARK   78  A    between atoms: _181  and  _182
REMARK   79  A    between atoms: _182  and  _183
REMARK   80  A    between atoms: _185  and  _187
REMARK   81  A    between atoms: _187  and  _188
REMARK   82  A    between atoms: _190  and  _192
REMARK   83  A    between atoms: _192  and  _193
REMARK   84  A    between atoms: _192  and  _195
REMARK   85  A    between atoms: _195  and  _196
REMARK   86  A    between atoms: _196  and  _197
REMARK   87  A    between atoms: _197  and  _198
REMARK   88  A    between atoms: _207  and  _209
REMARK   89  A    between atoms: _209  and  _210
REMARK   90  A    between atoms: _209  and  _212
REMARK   91  A    between atoms: _212  and  _213
REMARK   92  A    between atoms: _218  and  _219
REMARK   93  A    between atoms: _221  and  _223
REMARK   94  A    between atoms: _223  and  _224
REMARK   95  A    between atoms: _223  and  _226
REMARK   96  A    between atoms: _226  and  _227
REMARK   97  A    between atoms: _232  and  _234
REMARK   98  A    between atoms: _234  and  _235
REMARK   99  A    between atoms: _234  and  _237
REMARK  100  A    between atoms: _237  and  _238
REMARK  101  A    between atoms: _244  and  _245
REMARK  102  A    between atoms: _250  and  _252
REMARK  103  A    between atoms: _252  and  _253
REMARK  104  A    between atoms: _252  and  _255
REMARK  105  A    between atoms: _255  and  _256
REMARK  106  A    between atoms: _256  and  _257
REMARK  107  A    between atoms: _260  and  _262
REMARK  108  A    between atoms: _262  and  _263
REMARK  109  A    between atoms: _262  and  _265
REMARK  110  A    between atoms: _265  and  _266
REMARK  111  A    between atoms: _272  and  _274
REMARK  112  A    between atoms: _274  and  _275
REMARK  113  A    between atoms: _274  and  _277
REMARK  114  A    between atoms: _277  and  _278
REMARK  115  A    between atoms: _281  and  _283
REMARK  116  A    between atoms: _283  and  _284
REMARK  117  A    between atoms: _283  and  _286
REMARK  118  A    between atoms: _286  and  _287
REMARK  119  A    between atoms: _287  and  _288
REMARK  120  A    between atoms: _290  and  _292
REMARK  121  A    between atoms: _292  and  _293
REMARK  122  A    between atoms: _292  and  _295
REMARK  123  A    between atoms: _295  and  _296
REMARK  124  A    between atoms: _299  and  _301
REMARK  125  A    between atoms: _301  and  _302
REMARK  126  A    between atoms: _301  and  _304
REMARK  127  A    between atoms: _304  and  _305
REMARK  128  A    between atoms: _305  and  _306
REMARK  129  A    between atoms: _309  and  _311
REMARK  130  A    between atoms: _311  and  _312
REMARK  131  A    between atoms: _311  and  _314
REMARK  132  A    between atoms: _314  and  _315
REMARK  133  A    between atoms: _325  and  _327
REMARK  134  A    between atoms: _327  and  _328
REMARK  135  A    between atoms: _327  and  _330
REMARK  136  A    between atoms: _330  and  _331
REMARK  137  A    between atoms: _336  and  _337
REMARK  138  A    between atoms: _339  and  _341
REMARK  139  A    between atoms: _341  and  _342
REMARK  140  A    between atoms: _341  and  _344
REMARK  141  A    between atoms: _344  and  _345
REMARK  142  A    between atoms: _348  and  _350
REMARK  143  A    between atoms: _350  and  _351
REMARK  144  A    between atoms: _350  and  _353
REMARK  145  A    between atoms: _353  and  _354
REMARK  146  A    between atoms: _356  and  _358
REMARK  147  A    between atoms: _358  and  _359
REMARK  148  A    between atoms: _358  and  _361
REMARK  149  A    between atoms: _361  and  _362
REMARK  150  A    between atoms: _365  and  _367
REMARK  151  A    between atoms: _367  and  _368
REMARK  152  A    between atoms: _371  and  _373
REMARK  153  A    between atoms: _373  and  _374
REMARK  154  A    between atoms: _373  and  _376
REMARK  155  A    between atoms: _376  and  _377
REMARK  156  A    between atoms: _377  and  _378
REMARK  157  A    between atoms: _381  and  _383
REMARK  158  A    between atoms: _383  and  _384
REMARK  159  A    between atoms: _383  and  _386
REMARK  160  A    between atoms: _386  and  _387
REMARK  161  A    between atoms: _387  and  _388
REMARK  162  A    between atoms: _388  and  _389
REMARK  163  A    between atoms: _398  and  _400
REMARK  164  A    between atoms: _400  and  _401
REMARK  165  A    between atoms: _400  and  _403
REMARK  166  A    between atoms: _403  and  _404
REMARK  167  A    between atoms: _410  and  _412
REMARK  168  A    between atoms: _412  and  _413
REMARK  169  A    between atoms: _412  and  _415
REMARK  170  A    between atoms: _415  and  _416
REMARK  171  A    between atoms: _416  and  _417
REMARK  172  A    between atoms: _420  and  _422
REMARK  173  A    between atoms: _422  and  _423
REMARK  174  A    between atoms: _422  and  _425
REMARK  175  A    between atoms: _428  and  _430
REMARK  176  A    between atoms: _430  and  _431
REMARK  177  A    between atoms: _430  and  _433
REMARK  178  A    between atoms: _433  and  _434
REMARK  179  A    between atoms: _439  and  _440
REMARK  180  A    between atoms: _442  and  _444
REMARK  181  A    between atoms: _444  and  _445
REMARK  182  A    between atoms: _444  and  _447
REMARK  183  A    between atoms: _447  and  _448
REMARK  184  A    between atoms: _451  and  _453
REMARK  185  A    between atoms: _453  and  _454
REMARK  186  A    between atoms: _453  and  _456
REMARK  187  A    between atoms: _456  and  _457
REMARK  188  A    between atoms: _457  and  _458
REMARK  189  A    between atoms: _461  and  _463
REMARK  190  A    between atoms: _463  and  _464
REMARK  191  A    between atoms: _463  and  _466
REMARK  192  A    between atoms: _466  and  _467
REMARK  193  A    between atoms: _470  and  _472
REMARK  194  A    between atoms: _472  and  _473
REMARK  195  A    between atoms: _476  and  _478
REMARK  196  A    between atoms: _478  and  _479
REMARK  197  A    between atoms: _478  and  _481
REMARK  198  A    between atoms: _481  and  _482
REMARK  199  A    between atoms: _487  and  _489
REMARK  200  A    between atoms: _489  and  _490
REMARK  201  A    between atoms: _492  and  _494
REMARK  202  A    between atoms: _494  and  _495
REMARK  203  A    between atoms: _494  and  _497
REMARK  204  A    between atoms: _497  and  _498
REMARK  205  A    between atoms: _504  and  _506
REMARK  206  A    between atoms: _506  and  _507
REMARK  207  A    between atoms: _506  and  _509
REMARK  208  A    between atoms: _509  and  _510
REMARK  209  A    between atoms: _515  and  _517
REMARK  210  A    between atoms: _517  and  _518
REMARK  211  A    between atoms: _517  and  _520
REMARK  212  A    between atoms: _520  and  _521
REMARK  213  A    between atoms: _521  and  _522
REMARK  214  A    between atoms: _525  and  _527
REMARK  215  A    between atoms: _527  and  _528
REMARK  216  A    between atoms: _527  and  _530
REMARK  217  A    between atoms: _530  and  _531
REMARK  218  A    between atoms: _534  and  _536
REMARK  219  A    between atoms: _536  and  _537
REMARK  220  A    between atoms: _536  and  _539
REMARK  221  A    between atoms: _541  and  _543
REMARK  222  A    between atoms: _543  and  _544
REMARK  223  A    between atoms: _543  and  _546
REMARK  224  A    between atoms: _546  and  _547
REMARK  225  A    between atoms: _549  and  _551
REMARK  226  A    between atoms: _551  and  _552
REMARK  227  A    between atoms: _554  and  _556
REMARK  228  A    between atoms: _556  and  _557
REMARK  229  A    between atoms: _556  and  _559
REMARK  230  A    between atoms: _562  and  _564
REMARK  231  A    between atoms: _564  and  _565
REMARK  232  A    between atoms: _568  and  _570
REMARK  233  A    between atoms: _570  and  _571
REMARK  234  A    between atoms: _570  and  _573
REMARK  235  A    between atoms: _573  and  _574
REMARK  236  A    between atoms: _577  and  _579
REMARK  237  A    between atoms: _579  and  _580
REMARK  238  A    between atoms: _582  and  _584
REMARK  239  A    between atoms: _584  and  _585
REMARK  240  A    between atoms: _584  and  _587
REMARK  241  A    between atoms: _590  and  _592
REMARK  242  A    between atoms: _592  and  _593
REMARK  243  A    between atoms: _592  and  _595
REMARK  244  A    between atoms: _595  and  _596
REMARK  245  A    between atoms: _599  and  _601
REMARK  246  A    between atoms: _601  and  _602
REMARK  247  A    between atoms: _601  and  _604
REMARK  248  A    between atoms: _604  and  _605
REMARK  249  A    between atoms: _605  and  _606
REMARK  250  A    between atoms: _606  and  _607
REMARK  251  A    between atoms: _616  and  _618
REMARK  252  A    between atoms: _618  and  _619
REMARK  253  A    between atoms: _618  and  _621
REMARK  254  A    between atoms: _621  and  _622
REMARK  255  A    between atoms: _625  and  _627
REMARK  256  A    between atoms: _627  and  _628
REMARK  257  A    between atoms: _627  and  _630
REMARK  258  A    between atoms: _630  and  _631
REMARK  259  A    between atoms: _634  and  _636
REMARK  260  A    between atoms: _636  and  _637
REMARK  261  A    between atoms: _636  and  _639
REMARK  262  A    between atoms: _639  and  _640
REMARK                            x       y       z     vdW  Elec       q    Type
REMARK                         _______ _______ _______ _____ _____    ______ ____
ROOT
ATOM      1  O   HOH     1      -9.870  -5.999  -4.342  0.00  0.00    +0.000 OA
ENDROOT
TORSDOF 0
REMARK  Name = ../refined-set-2016/3a5y/3a5y_pocket.pdb
REMARK  262 active torsions:
REMARK  status: ('A' for Active; 'I' for Inactive)
REMARK    1  A    between atoms: _1  and  _3
REMARK    2  A    between atoms: _3  and  _4
REMARK    3  A    between atoms: _3  and  _6
REMARK    4  A    between atoms: _9  and  _11
REMARK    5  A    between atoms: _11  and  _12
REMARK    6  A    between atoms: _11  and  _14
REMARK    7  A    between atoms: _14  and  _15
REMARK    8  A    between atoms: _18  and  _20
REMARK    9  A    between atoms: _20  and  _21
REMARK   10  A    between atoms: _20  and  _23
REMARK   11  A    between atoms: _23  and  _24
REMARK   12  A    between atoms: _29  and  _31
REMARK   13  A    between atoms: _31  and  _32
REMARK   14  A    between atoms: _31  and  _34
REMARK   15  A    between atoms: _34  and  _35
REMARK   16  A    between atoms: _38  and  _40
REMARK   17  A    between atoms: _40  and  _41
REMARK   18  A    between atoms: _40  and  _43
REMARK   19  A    between atoms: _43  and  _44
REMARK   20  A    between atoms: _47  and  _49
REMARK   21  A    between atoms: _49  and  _50
REMARK   22  A    between atoms: _49  and  _52
REMARK   23  A    between atoms: _52  and  _53
REMARK   24  A    between atoms: _56  and  _57
REMARK   25  A    between atoms: _62  and  _64
REMARK   26  A    between atoms: _64  and  _65
REMARK   27  A    between atoms: _64  and  _67
REMARK   28  A    between atoms: _67  and  _68
REMARK   29  A    between atoms: _68  and  _69
REMARK   30  A    between atoms: _72  and  _74
REMARK   31  A    between atoms: _74  and  _75
REMARK   32  A    between atoms: _74  and  _77
REMARK   33  A    between atoms: _77  and  _78
REMARK   34  A    between atoms: _83  and  _84
REMARK   35  A    between atoms: _86  and  _88
REMARK   36  A    between atoms: _88  and  _89
REMARK   37  A    between atoms: _88  and  _91
REMARK   38  A    between atoms: _91  and  _92
REMARK   39  A    between atoms: _92  and  _93
REMARK   40  A    between atoms: _95  and  _97
REMARK   41  A    between atoms: _97  and  _98
REMARK   42  A    between atoms: _97  and  _100
REMARK   43  A    between atoms: _100  and  _101
REMARK   44  A    between atoms: _101  and  _102
REMARK   45  A    between atoms: _102  and  _103
REMARK   46  A    between atoms: _103  and  _104
REMARK   47  A    between atoms: _108  and  _110
REMARK   48  A    between atoms: _110  and  _111
REMARK   49  A    between atoms: _110  and  _113
REMARK   50  A    between atoms: _113  and  _114
REMARK   51  A    between atoms: _116  and  _118
REMARK   52  A    between atoms: _118  and  _119
REMARK   53  A    between atoms: _118  and  _121
REMARK   54  A    between atoms: _121  and  _122
REMARK   55  A    between atoms: _128  and  _130
REMARK   56  A    between atoms: _130  and  _131
REMARK   57  A    between atoms: _130  and  _133
REMARK   58  A    between atoms: _133  and  _134
REMARK   59  A    between atoms: _134  and  _135
REMARK   60  A    between atoms: _135  and  _136
REMARK   61  A    between atoms: _145  and  _147
REMARK   62  A    between atoms: _147  and  _148
REMARK   63  A    between atoms: _147  and  _150
REMARK   64  A    between atoms: _150  and  _151
REMARK   65  A    between atoms: _156  and  _158
REMARK   66  A    between atoms: _158  and  _159
REMARK   67  A    between atoms: _158  and  _161
REMARK   68  A    between atoms: _161  and  _162
REMARK   69  A    between atoms: _162  and  _163
REMARK   70  A    between atoms: _166  and  _168
REMARK   71  A    between atoms: _168  and  _169
REMARK   72  A    between atoms: _168  and  _171
REMARK   73  A    between atoms: _171  and  _172
REMARK   74  A    between atoms: _172  and  _173
REMARK   75  A    between atoms: _176  and  _178
REMARK   76  A    between atoms: _178  and  _179
REMARK   77  A    between atoms: _178  and  _181
REMARK   78  A    between atoms: _181  and  _182
REMARK   79  A    between atoms: _182  and  _183
REMARK   80  A    between atoms: _185  and  _187
REMARK   81  A    between atoms: _187  and  _188
REMARK   82  A    between atoms: _190  and  _192
REMARK   83  A    between atoms: _192  and  _193
REMARK   84  A    between atoms: _192  and  _195
REMARK   85  A    between atoms: _195  and  _196
REMARK   86  A    between atoms: _196  and  _197
REMARK   87  A    between atoms: _197  and  _198
REMARK   88  A    between atoms: _207  and  _209
REMARK   89  A    between atoms: _209  and  _210
REMARK   90  A    between atoms: _209  and  _212
REMARK   91  A    between atoms: _212  and  _213
REMARK   92  A    between atoms: _218  and  _219
REMARK   93  A    between atoms: _221  and  _223
REMARK   94  A    between atoms: _223  and  _224
REMARK   95  A    between atoms: _223  and  _226
REMARK   96  A    between atoms: _226  and  _227
REMARK   97  A    between atoms: _232  and  _234
REMARK   98  A    between atoms: _234  and  _235
REMARK   99  A    between atoms: _234  and  _237
REMARK  100  A    between atoms: _237  and  _238
REMARK  101  A    between atoms: _244  and  _245
REMARK  102  A    between atoms: _250  and  _252
REMARK  103  A    between atoms: _252  and  _253
REMARK  104  A    between atoms: _252  and  _255
REMARK  105  A    between atoms: _255  and  _256
REMARK  106  A    between atoms: _256  and  _257
REMARK  107  A    between atoms: _260  and  _262
REMARK  108  A    between atoms: _262  and  _263
REMARK  109  A    between atoms: _262  and  _265
REMARK  110  A    between atoms: _265  and  _266
REMARK  111  A    between atoms: _272  and  _274
REMARK  112  A    between atoms: _274  and  _275
REMARK  113  A    between atoms: _274  and  _277
REMARK  114  A    between atoms: _277  and  _278
REMARK  115  A    between atoms: _281  and  _283
REMARK  116  A    between atoms: _283  and  _284
REMARK  117  A    between atoms: _283  and  _286
REMARK  118  A    between atoms: _286  and  _287
REMARK  119  A    between atoms: _287  and  _288
REMARK  120  A    between atoms: _290  and  _292
REMARK  121  A    between atoms: _292  and  _293
REMARK  122  A    between atoms: _292  and  _295
REMARK  123  A    between atoms: _295  and  _296
REMARK  124  A    between atoms: _299  and  _301
REMARK  125  A    between atoms: _301  and  _302
REMARK  126  A    between atoms: _301  and  _304
REMARK  127  A    between atoms: _304  and  _305
REMARK  128  A    between atoms: _305  and  _306
REMARK  129  A    between atoms: _309  and  _311
REMARK  130  A    between atoms: _311  and  _312
REMARK  131  A    between atoms: _311  and  _314
REMARK  132  A    between atoms: _314  and  _315
REMARK  133  A    between atoms: _325  and  _327
REMARK  134  A    between atoms: _327  and  _328
REMARK  135  A    between atoms: _327  and  _330
REMARK  136  A    between atoms: _330  and  _331
REMARK  137  A    between atoms: _336  and  _337
REMARK  138  A    between atoms: _339  and  _341
REMARK  139  A    between atoms: _341  and  _342
REMARK  140  A    between atoms: _341  and  _344
REMARK  141  A    between atoms: _344  and  _345
REMARK  142  A    between atoms: _348  and  _350
REMARK  143  A    between atoms: _350  and  _351
REMARK  144  A    between atoms: _350  and  _353
REMARK  145  A    between atoms: _353  and  _354
REMARK  146  A    between atoms: _356  and  _358
REMARK  147  A    between atoms: _358  and  _359
REMARK  148  A    between atoms: _358  and  _361
REMARK  149  A    between atoms: _361  and  _362
REMARK  150  A    between atoms: _365  and  _367
REMARK  151  A    between atoms: _367  and  _368
REMARK  152  A    between atoms: _371  and  _373
REMARK  153  A    between atoms: _373  and  _374
REMARK  154  A    between atoms: _373  and  _376
REMARK  155  A    between atoms: _376  and  _377
REMARK  156  A    between atoms: _377  and  _378
REMARK  157  A    between atoms: _381  and  _383
REMARK  158  A    between atoms: _383  and  _384
REMARK  159  A    between atoms: _383  and  _386
REMARK  160  A    between atoms: _386  and  _387
REMARK  161  A    between atoms: _387  and  _388
REMARK  162  A    between atoms: _388  and  _389
REMARK  163  A    between atoms: _398  and  _400
REMARK  164  A    between atoms: _400  and  _401
REMARK  165  A    between atoms: _400  and  _403
REMARK  166  A    between atoms: _403  and  _404
REMARK  167  A    between atoms: _410  and  _412
REMARK  168  A    between atoms: _412  and  _413
REMARK  169  A    between atoms: _412  and  _415
REMARK  170  A    between atoms: _415  and  _416
REMARK  171  A    between atoms: _416  and  _417
REMARK  172  A    between atoms: _420  and  _422
REMARK  173  A    between atoms: _422  and  _423
REMARK  174  A    between atoms: _422  and  _425
REMARK  175  A    between atoms: _428  and  _430
REMARK  176  A    between atoms: _430  and  _431
REMARK  177  A    between atoms: _430  and  _433
REMARK  178  A    between atoms: _433  and  _434
REMARK  179  A    between atoms: _439  and  _440
REMARK  180  A    between atoms: _442  and  _444
REMARK  181  A    between atoms: _444  and  _445
REMARK  182  A    between atoms: _444  and  _447
REMARK  183  A    between atoms: _447  and  _448
REMARK  184  A    between atoms: _451  and  _453
REMARK  185  A    between atoms: _453  and  _454
REMARK  186  A    between atoms: _453  and  _456
REMARK  187  A    between atoms: _456  and  _457
REMARK  188  A    between atoms: _457  and  _458
REMARK  189  A    between atoms: _461  and  _463
REMARK  190  A    between atoms: _463  and  _464
REMARK  191  A    between atoms: _463  and  _466
REMARK  192  A    between atoms: _466  and  _467
REMARK  193  A    between atoms: _470  and  _472
REMARK  194  A    between atoms: _472  and  _473
REMARK  195  A    between atoms: _476  and  _478
REMARK  196  A    between atoms: _478  and  _479
REMARK  197  A    between atoms: _478  and  _481
REMARK  198  A    between atoms: _481  and  _482
REMARK  199  A    between atoms: _487  and  _489
REMARK  200  A    between atoms: _489  and  _490
REMARK  201  A    between atoms: _492  and  _494
REMARK  202  A    between atoms: _494  and  _495
REMARK  203  A    between atoms: _494  and  _497
REMARK  204  A    between atoms: _497  and  _498
REMARK  205  A    between atoms: _504  and  _506
REMARK  206  A    between atoms: _506  and  _507
REMARK  207  A    between atoms: _506  and  _509
REMARK  208  A    between atoms: _509  and  _510
REMARK  209  A    between atoms: _515  and  _517
REMARK  210  A    between atoms: _517  and  _518
REMARK  211  A    between atoms: _517  and  _520
REMARK  212  A    between atoms: _520  and  _521
REMARK  213  A    between atoms: _521  and  _522
REMARK  214  A    between atoms: _525  and  _527
REMARK  215  A    between atoms: _527  and  _528
REMARK  216  A    between atoms: _527  and  _530
REMARK  217  A    between atoms: _530  and  _531
REMARK  218  A    between atoms: _534  and  _536
REMARK  219  A    between atoms: _536  and  _537
REMARK  220  A    between atoms: _536  and  _539
REMARK  221  A    between atoms: _541  and  _543
REMARK  222  A    between atoms: _543  and  _544
REMARK  223  A    between atoms: _543  and  _546
REMARK  224  A    between atoms: _546  and  _547
REMARK  225  A    between atoms: _549  and  _551
REMARK  226  A    between atoms: _551  and  _552
REMARK  227  A    between atoms: _554  and  _556
REMARK  228  A    between atoms: _556  and  _557
REMARK  229  A    between atoms: _556  and  _559
REMARK  230  A    between atoms: _562  and  _564
REMARK  231  A    between atoms: _564  and  _565
REMARK  232  A    between atoms: _568  and  _570
REMARK  233  A    between atoms: _570  and  _571
REMARK  234  A    between atoms: _570  and  _573
REMARK  235  A    between atoms: _573  and  _574
REMARK  236  A    between atoms: _577  and  _579
REMARK  237  A    between atoms: _579  and  _580
REMARK  238  A    between atoms: _582  and  _584
REMARK  239  A    between atoms: _584  and  _585
REMARK  240  A    between atoms: _584  and  _587
REMARK  241  A    between atoms: _590  and  _592
REMARK  242  A    between atoms: _592  and  _593
REMARK  243  A    between atoms: _592  and  _595
REMARK  244  A    between atoms: _595  and  _596
REMARK  245  A    between atoms: _599  and  _601
REMARK  246  A    between atoms: _601  and  _602
REMARK  247  A    between atoms: _601  and  _604
REMARK  248  A    between atoms: _604  and  _605
REMARK  249  A    between atoms: _605  and  _606
REMARK  250  A    between atoms: _606  and  _607
REMARK  251  A    between atoms: _616  and  _618
REMARK  252  A    between atoms: _618  and  _619
REMARK  253  A    between atoms: _618  and  _621
REMARK  254  A    between atoms: _621  and  _622
REMARK  255  A    between atoms: _625  and  _627
REMARK  256  A    between atoms: _627  and  _628
REMARK  257  A    between atoms: _627  and  _630
REMARK  258  A    between atoms: _630  and  _631
REMARK  259  A    between atoms: _634  and  _636
REMARK  260  A    between atoms: _636  and  _637
REMARK  261  A    between atoms: _636  and  _639
REMARK  262  A    between atoms: _639  and  _640
REMARK                            x       y       z     vdW  Elec       q    Type
REMARK                         _______ _______ _______ _____ _____    ______ ____
ROOT
ATOM      1  O   HOH     1      -0.529   0.153  -9.982  0.00  0.00    +0.000 OA
ENDROOT
TORSDOF 0
REMARK  Name = ../refined-set-2016/3a5y/3a5y_pocket.pdb
REMARK  262 active torsions:
REMARK  status: ('A' for Active; 'I' for Inactive)
REMARK    1  A    between atoms: _1  and  _3
REMARK    2  A    between atoms: _3  and  _4
REMARK    3  A    between atoms: _3  and  _6
REMARK    4  A    between atoms: _9  and  _11
REMARK    5  A    between atoms: _11  and  _12
REMARK    6  A    between atoms: _11  and  _14
REMARK    7  A    between atoms: _14  and  _15
REMARK    8  A    between atoms: _18  and  _20
REMARK    9  A    between atoms: _20  and  _21
REMARK   10  A    between atoms: _20  and  _23
REMARK   11  A    between atoms: _23  and  _24
REMARK   12  A    between atoms: _29  and  _31
REMARK   13  A    between atoms: _31  and  _32
REMARK   14  A    between atoms: _31  and  _34
REMARK   15  A    between atoms: _34  and  _35
REMARK   16  A    between atoms: _38  and  _40
REMARK   17  A    between atoms: _40  and  _41
REMARK   18  A    between atoms: _40  and  _43
REMARK   19  A    between atoms: _43  and  _44
REMARK   20  A    between atoms: _47  and  _49
REMARK   21  A    between atoms: _49  and  _50
REMARK   22  A    between atoms: _49  and  _52
REMARK   23  A    between atoms: _52  and  _53
REMARK   24  A    between atoms: _56  and  _57
REMARK   25  A    between atoms: _62  and  _64
REMARK   26  A    between atoms: _64  and  _65
REMARK   27  A    between atoms: _64  and  _67
REMARK   28  A    between atoms: _67  and  _68
REMARK   29  A    between atoms: _68  and  _69
REMARK   30  A    between atoms: _72  and  _74
REMARK   31  A    between atoms: _74  and  _75
REMARK   32  A    between atoms: _74  and  _77
REMARK   33  A    between atoms: _77  and  _78
REMARK   34  A    between atoms: _83  and  _84
REMARK   35  A    between atoms: _86  and  _88
REMARK   36  A    between atoms: _88  and  _89
REMARK   37  A    between atoms: _88  and  _91
REMARK   38  A    between atoms: _91  and  _92
REMARK   39  A    between atoms: _92  and  _93
REMARK   40  A    between atoms: _95  and  _97
REMARK   41  A    between atoms: _97  and  _98
REMARK   42  A    between atoms: _97  and  _100
REMARK   43  A    between atoms: _100  and  _101
REMARK   44  A    between atoms: _101  and  _102
REMARK   45  A    between atoms: _102  and  _103
REMARK   46  A    between atoms: _103  and  _104
REMARK   47  A    between atoms: _108  and  _110
REMARK   48  A    between atoms: _110  and  _111
REMARK   49  A    between atoms: _110  and  _113
REMARK   50  A    between atoms: _113  and  _114
REMARK   51  A    between atoms: _116  and  _118
REMARK   52  A    between atoms: _118  and  _119
REMARK   53  A    between atoms: _118  and  _121
REMARK   54  A    between atoms: _121  and  _122
REMARK   55  A    between atoms: _128  and  _130
REMARK   56  A    between atoms: _130  and  _131
REMARK   57  A    between atoms: _130  and  _133
REMARK   58  A    between atoms: _133  and  _134
REMARK   59  A    between atoms: _134  and  _135
REMARK   60  A    between atoms: _135  and  _136
REMARK   61  A    between atoms: _145  and  _147
REMARK   62  A    between atoms: _147  and  _148
REMARK   63  A    between atoms: _147  and  _150
REMARK   64  A    between atoms: _150  and  _151
REMARK   65  A    between atoms: _156  and  _158
REMARK   66  A    between atoms: _158  and  _159
REMARK   67  A    between atoms: _158  and  _161
REMARK   68  A    between atoms: _161  and  _162
REMARK   69  A    between atoms: _162  and  _163
REMARK   70  A    between atoms: _166  and  _168
REMARK   71  A    between atoms: _168  and  _169
REMARK   72  A    between atoms: _168  and  _171
REMARK   73  A    between atoms: _171  and  _172
REMARK   74  A    between atoms: _172  and  _173
REMARK   75  A    between atoms: _176  and  _178
REMARK   76  A    between atoms: _178  and  _179
REMARK   77  A    between atoms: _178  and  _181
REMARK   78  A    between atoms: _181  and  _182
REMARK   79  A    between atoms: _182  and  _183
REMARK   80  A    between atoms: _185  and  _187
REMARK   81  A    between atoms: _187  and  _188
REMARK   82  A    between atoms: _190  and  _192
REMARK   83  A    between atoms: _192  and  _193
REMARK   84  A    between atoms: _192  and  _195
REMARK   85  A    between atoms: _195  and  _196
REMARK   86  A    between atoms: _196  and  _197
REMARK   87  A    between atoms: _197  and  _198
REMARK   88  A    between atoms: _207  and  _209
REMARK   89  A    between atoms: _209  and  _210
REMARK   90  A    between atoms: _209  and  _212
REMARK   91  A    between atoms: _212  and  _213
REMARK   92  A    between atoms: _218  and  _219
REMARK   93  A    between atoms: _221  and  _223
REMARK   94  A    between atoms: _223  and  _224
REMARK   95  A    between atoms: _223  and  _226
REMARK   96  A    between atoms: _226  and  _227
REMARK   97  A    between atoms: _232  and  _234
REMARK   98  A    between atoms: _234  and  _235
REMARK   99  A    between atoms: _234  and  _237
REMARK  100  A    between atoms: _237  and  _238
REMARK  101  A    between atoms: _244  and  _245
REMARK  102  A    between atoms: _250  and  _252
REMARK  103  A    between atoms: _252  and  _253
REMARK  104  A    between atoms: _252  and  _255
REMARK  105  A    between atoms: _255  and  _256
REMARK  106  A    between atoms: _256  and  _257
REMARK  107  A    between atoms: _260  and  _262
REMARK  108  A    between atoms: _262  and  _263
REMARK  109  A    between atoms: _262  and  _265
REMARK  110  A    between atoms: _265  and  _266
REMARK  111  A    between atoms: _272  and  _274
REMARK  112  A    between atoms: _274  and  _275
REMARK  113  A    between atoms: _274  and  _277
REMARK  114  A    between atoms: _277  and  _278
REMARK  115  A    between atoms: _281  and  _283
REMARK  116  A    between atoms: _283  and  _284
REMARK  117  A    between atoms: _283  and  _286
REMARK  118  A    between atoms: _286  and  _287
REMARK  119  A    between atoms: _287  and  _288
REMARK  120  A    between atoms: _290  and  _292
REMARK  121  A    between atoms: _292  and  _293
REMARK  122  A    between atoms: _292  and  _295
REMARK  123  A    between atoms: _295  and  _296
REMARK  124  A    between atoms: _299  and  _301
REMARK  125  A    between atoms: _301  and  _302
REMARK  126  A    between atoms: _301  and  _304
REMARK  127  A    between atoms: _304  and  _305
REMARK  128  A    between atoms: _305  and  _306
REMARK  129  A    between atoms: _309  and  _311
REMARK  130  A    between atoms: _311  and  _312
REMARK  131  A    between atoms: _311  and  _314
REMARK  132  A    between atoms: _314  and  _315
REMARK  133  A    between atoms: _325  and  _327
REMARK  134  A    between atoms: _327  and  _328
REMARK  135  A    between atoms: _327  and  _330
REMARK  136  A    between atoms: _330  and  _331
REMARK  137  A    between atoms: _336  and  _337
REMARK  138  A    between atoms: _339  and  _341
REMARK  139  A    between atoms: _341  and  _342
REMARK  140  A    between atoms: _341  and  _344
REMARK  141  A    between atoms: _344  and  _345
REMARK  142  A    between atoms: _348  and  _350
REMARK  143  A    between atoms: _350  and  _351
REMARK  144  A    between atoms: _350  and  _353
REMARK  145  A    between atoms: _353  and  _354
REMARK  146  A    between atoms: _356  and  _358
REMARK  147  A    between atoms: _358  and  _359
REMARK  148  A    between atoms: _358  and  _361
REMARK  149  A    between atoms: _361  and  _362
REMARK  150  A    between atoms: _365  and  _367
REMARK  151  A    between atoms: _367  and  _368
REMARK  152  A    between atoms: _371  and  _373
REMARK  153  A    between atoms: _373  and  _374
REMARK  154  A    between atoms: _373  and  _376
REMARK  155  A    between atoms: _376  and  _377
REMARK  156  A    between atoms: _377  and  _378
REMARK  157  A    between atoms: _381  and  _383
REMARK  158  A    between atoms: _383  and  _384
REMARK  159  A    between atoms: _383  and  _386
REMARK  160  A    between atoms: _386  and  _387
REMARK  161  A    between atoms: _387  and  _388
REMARK  162  A    between atoms: _388  and  _389
REMARK  163  A    between atoms: _398  and  _400
REMARK  164  A    between atoms: _400  and  _401
REMARK  165  A    between atoms: _400  and  _403
REMARK  166  A    between atoms: _403  and  _404
REMARK  167  A    between atoms: _410  and  _412
REMARK  168  A    between atoms: _412  and  _413
REMARK  169  A    between atoms: _412  and  _415
REMARK  170  A    between atoms: _415  and  _416
REMARK  171  A    between atoms: _416  and  _417
REMARK  172  A    between atoms: _420  and  _422
REMARK  173  A    between atoms: _422  and  _423
REMARK  174  A    between atoms: _422  and  _425
REMARK  175  A    between atoms: _428  and  _430
REMARK  176  A    between atoms: _430  and  _431
REMARK  177  A    between atoms: _430  and  _433
REMARK  178  A    between atoms: _433  and  _434
REMARK  179  A    between atoms: _439  and  _440
REMARK  180  A    between atoms: _442  and  _444
REMARK  181  A    between atoms: _444  and  _445
REMARK  182  A    between atoms: _444  and  _447
REMARK  183  A    between atoms: _447  and  _448
REMARK  184  A    between atoms: _451  and  _453
REMARK  185  A    between atoms: _453  and  _454
REMARK  186  A    between atoms: _453  and  _456
REMARK  187  A    between atoms: _456  and  _457
REMARK  188  A    between atoms: _457  and  _458
REMARK  189  A    between atoms: _461  and  _463
REMARK  190  A    between atoms: _463  and  _464
REMARK  191  A    between atoms: _463  and  _466
REMARK  192  A    between atoms: _466  and  _467
REMARK  193  A    between atoms: _470  and  _472
REMARK  194  A    between atoms: _472  and  _473
REMARK  195  A    between atoms: _476  and  _478
REMARK  196  A    between atoms: _478  and  _479
REMARK  197  A    between atoms: _478  and  _481
REMARK  198  A    between atoms: _481  and  _482
REMARK  199  A    between atoms: _487  and  _489
REMARK  200  A    between atoms: _489  and  _490
REMARK  201  A    between atoms: _492  and  _494
REMARK  202  A    between atoms: _494  and  _495
REMARK  203  A    between atoms: _494  and  _497
REMARK  204  A    between atoms: _497  and  _498
REMARK  205  A    between atoms: _504  and  _506
REMARK  206  A    between atoms: _506  and  _507
REMARK  207  A    between atoms: _506  and  _509
REMARK  208  A    between atoms: _509  and  _510
REMARK  209  A    between atoms: _515  and  _517
REMARK  210  A    between atoms: _517  and  _518
REMARK  211  A    between atoms: _517  and  _520
REMARK  212  A    between atoms: _520  and  _521
REMARK  213  A    between atoms: _521  and  _522
REMARK  214  A    between atoms: _525  and  _527
REMARK  215  A    between atoms: _527  and  _528
REMARK  216  A    between atoms: _527  and  _530
REMARK  217  A    between atoms: _530  and  _531
REMARK  218  A    between atoms: _534  and  _536
REMARK  219  A    between atoms: _536  and  _537
REMARK  220  A    between atoms: _536  and  _539
REMARK  221  A    between atoms: _541  and  _543
REMARK  222  A    between atoms: _543  and  _544
REMARK  223  A    between atoms: _543  and  _546
REMARK  224  A    between atoms: _546  and  _547
REMARK  225  A    between atoms: _549  and  _551
REMARK  226  A    between atoms: _551  and  _552
REMARK  227  A    between atoms: _554  and  _556
REMARK  228  A    between atoms: _556  and  _557
REMARK  229  A    between atoms: _556  and  _559
REMARK  230  A    between atoms: _562  and  _564
REMARK  231  A    between atoms: _564  and  _565
REMARK  232  A    between atoms: _568  and  _570
REMARK  233  A    between atoms: _570  and  _571
REMARK  234  A    between atoms: _570  and  _573
REMARK  235  A    between atoms: _573  and  _574
REMARK  236  A    between atoms: _577  and  _579
REMARK  237  A    between atoms: _579  and  _580
REMARK  238  A    between atoms: _582  and  _584
REMARK  239  A    between atoms: _584  and  _585
REMARK  240  A    between atoms: _584  and  _587
REMARK  241  A    between atoms: _590  and  _592
REMARK  242  A    between atoms: _592  and  _593
REMARK  243  A    between atoms: _592  and  _595
REMARK  244  A    between atoms: _595  and  _596
REMARK  245  A    between atoms: _599  and  _601
REMARK  246  A    between atoms: _601  and  _602
REMARK  247  A    between atoms: _601  and  _604
REMARK  248  A    between atoms: _604  and  _605
REMARK  249  A    between atoms: _605  and  _606
REMARK  250  A    between atoms: _606  and  _607
REMARK  251  A    between atoms: _616  and  _618
REMARK  252  A    between atoms: _618  and  _619
REMARK  253  A    between atoms: _618  and  _621
REMARK  254  A    between atoms: _621  and  _622
REMARK  255  A    between atoms: _625  and  _627
REMARK  256  A    between atoms: _627  and  _628
REMARK  257  A    between atoms: _627  and  _630
REMARK  258  A    between atoms: _630  and  _631
REMARK  259  A    between atoms: _634  and  _636
REMARK  260  A    between atoms: _636  and  _637
REMARK  261  A    between atoms: _636  and  _639
REMARK  262  A    between atoms: _639  and  _640
REMARK                            x       y       z     vdW  Elec       q    Type
REMARK                         _______ _______ _______ _____ _____    ______ ____
ROOT
ATOM      1  O   HOH     1      -3.560  -2.361 -13.240  0.00  0.00    +0.000 OA
ENDROOT
TORSDOF 0
REMARK  Name = ../refined-set-2016/3a5y/3a5y_pocket.pdb
REMARK  262 active torsions:
REMARK  status: ('A' for Active; 'I' for Inactive)
REMARK    1  A    between atoms: _1  and  _3
REMARK    2  A    between atoms: _3  and  _4
REMARK    3  A    between atoms: _3  and  _6
REMARK    4  A    between atoms: _9  and  _11
REMARK    5  A    between atoms: _11  and  _12
REMARK    6  A    between atoms: _11  and  _14
REMARK    7  A    between atoms: _14  and  _15
REMARK    8  A    between atoms: _18  and  _20
REMARK    9  A    between atoms: _20  and  _21
REMARK   10  A    between atoms: _20  and  _23
REMARK   11  A    between atoms: _23  and  _24
REMARK   12  A    between atoms: _29  and  _31
REMARK   13  A    between atoms: _31  and  _32
REMARK   14  A    between atoms: _31  and  _34
REMARK   15  A    between atoms: _34  and  _35
REMARK   16  A    between atoms: _38  and  _40
REMARK   17  A    between atoms: _40  and  _41
REMARK   18  A    between atoms: _40  and  _43
REMARK   19  A    between atoms: _43  and  _44
REMARK   20  A    between atoms: _47  and  _49
REMARK   21  A    between atoms: _49  and  _50
REMARK   22  A    between atoms: _49  and  _52
REMARK   23  A    between atoms: _52  and  _53
REMARK   24  A    between atoms: _56  and  _57
REMARK   25  A    between atoms: _62  and  _64
REMARK   26  A    between atoms: _64  and  _65
REMARK   27  A    between atoms: _64  and  _67
REMARK   28  A    between atoms: _67  and  _68
REMARK   29  A    between atoms: _68  and  _69
REMARK   30  A    between atoms: _72  and  _74
REMARK   31  A    between atoms: _74  and  _75
REMARK   32  A    between atoms: _74  and  _77
REMARK   33  A    between atoms: _77  and  _78
REMARK   34  A    between atoms: _83  and  _84
REMARK   35  A    between atoms: _86  and  _88
REMARK   36  A    between atoms: _88  and  _89
REMARK   37  A    between atoms: _88  and  _91
REMARK   38  A    between atoms: _91  and  _92
REMARK   39  A    between atoms: _92  and  _93
REMARK   40  A    between atoms: _95  and  _97
REMARK   41  A    between atoms: _97  and  _98
REMARK   42  A    between atoms: _97  and  _100
REMARK   43  A    between atoms: _100  and  _101
REMARK   44  A    between atoms: _101  and  _102
REMARK   45  A    between atoms: _102  and  _103
REMARK   46  A    between atoms: _103  and  _104
REMARK   47  A    between atoms: _108  and  _110
REMARK   48  A    between atoms: _110  and  _111
REMARK   49  A    between atoms: _110  and  _113
REMARK   50  A    between atoms: _113  and  _114
REMARK   51  A    between atoms: _116  and  _118
REMARK   52  A    between atoms: _118  and  _119
REMARK   53  A    between atoms: _118  and  _121
REMARK   54  A    between atoms: _121  and  _122
REMARK   55  A    between atoms: _128  and  _130
REMARK   56  A    between atoms: _130  and  _131
REMARK   57  A    between atoms: _130  and  _133
REMARK   58  A    between atoms: _133  and  _134
REMARK   59  A    between atoms: _134  and  _135
REMARK   60  A    between atoms: _135  and  _136
REMARK   61  A    between atoms: _145  and  _147
REMARK   62  A    between atoms: _147  and  _148
REMARK   63  A    between atoms: _147  and  _150
REMARK   64  A    between atoms: _150  and  _151
REMARK   65  A    between atoms: _156  and  _158
REMARK   66  A    between atoms: _158  and  _159
REMARK   67  A    between atoms: _158  and  _161
REMARK   68  A    between atoms: _161  and  _162
REMARK   69  A    between atoms: _162  and  _163
REMARK   70  A    between atoms: _166  and  _168
REMARK   71  A    between atoms: _168  and  _169
REMARK   72  A    between atoms: _168  and  _171
REMARK   73  A    between atoms: _171  and  _172
REMARK   74  A    between atoms: _172  and  _173
REMARK   75  A    between atoms: _176  and  _178
REMARK   76  A    between atoms: _178  and  _179
REMARK   77  A    between atoms: _178  and  _181
REMARK   78  A    between atoms: _181  and  _182
REMARK   79  A    between atoms: _182  and  _183
REMARK   80  A    between atoms: _185  and  _187
REMARK   81  A    between atoms: _187  and  _188
REMARK   82  A    between atoms: _190  and  _192
REMARK   83  A    between atoms: _192  and  _193
REMARK   84  A    between atoms: _192  and  _195
REMARK   85  A    between atoms: _195  and  _196
REMARK   86  A    between atoms: _196  and  _197
REMARK   87  A    between atoms: _197  and  _198
REMARK   88  A    between atoms: _207  and  _209
REMARK   89  A    between atoms: _209  and  _210
REMARK   90  A    between atoms: _209  and  _212
REMARK   91  A    between atoms: _212  and  _213
REMARK   92  A    between atoms: _218  and  _219
REMARK   93  A    between atoms: _221  and  _223
REMARK   94  A    between atoms: _223  and  _224
REMARK   95  A    between atoms: _223  and  _226
REMARK   96  A    between atoms: _226  and  _227
REMARK   97  A    between atoms: _232  and  _234
REMARK   98  A    between atoms: _234  and  _235
REMARK   99  A    between atoms: _234  and  _237
REMARK  100  A    between atoms: _237  and  _238
REMARK  101  A    between atoms: _244  and  _245
REMARK  102  A    between atoms: _250  and  _252
REMARK  103  A    between atoms: _252  and  _253
REMARK  104  A    between atoms: _252  and  _255
REMARK  105  A    between atoms: _255  and  _256
REMARK  106  A    between atoms: _256  and  _257
REMARK  107  A    between atoms: _260  and  _262
REMARK  108  A    between atoms: _262  and  _263
REMARK  109  A    between atoms: _262  and  _265
REMARK  110  A    between atoms: _265  and  _266
REMARK  111  A    between atoms: _272  and  _274
REMARK  112  A    between atoms: _274  and  _275
REMARK  113  A    between atoms: _274  and  _277
REMARK  114  A    between atoms: _277  and  _278
REMARK  115  A    between atoms: _281  and  _283
REMARK  116  A    between atoms: _283  and  _284
REMARK  117  A    between atoms: _283  and  _286
REMARK  118  A    between atoms: _286  and  _287
REMARK  119  A    between atoms: _287  and  _288
REMARK  120  A    between atoms: _290  and  _292
REMARK  121  A    between atoms: _292  and  _293
REMARK  122  A    between atoms: _292  and  _295
REMARK  123  A    between atoms: _295  and  _296
REMARK  124  A    between atoms: _299  and  _301
REMARK  125  A    between atoms: _301  and  _302
REMARK  126  A    between atoms: _301  and  _304
REMARK  127  A    between atoms: _304  and  _305
REMARK  128  A    between atoms: _305  and  _306
REMARK  129  A    between atoms: _309  and  _311
REMARK  130  A    between atoms: _311  and  _312
REMARK  131  A    between atoms: _311  and  _314
REMARK  132  A    between atoms: _314  and  _315
REMARK  133  A    between atoms: _325  and  _327
REMARK  134  A    between atoms: _327  and  _328
REMARK  135  A    between atoms: _327  and  _330
REMARK  136  A    between atoms: _330  and  _331
REMARK  137  A    between atoms: _336  and  _337
REMARK  138  A    between atoms: _339  and  _341
REMARK  139  A    between atoms: _341  and  _342
REMARK  140  A    between atoms: _341  and  _344
REMARK  141  A    between atoms: _344  and  _345
REMARK  142  A    between atoms: _348  and  _350
REMARK  143  A    between atoms: _350  and  _351
REMARK  144  A    between atoms: _350  and  _353
REMARK  145  A    between atoms: _353  and  _354
REMARK  146  A    between atoms: _356  and  _358
REMARK  147  A    between atoms: _358  and  _359
REMARK  148  A    between atoms: _358  and  _361
REMARK  149  A    between atoms: _361  and  _362
REMARK  150  A    between atoms: _365  and  _367
REMARK  151  A    between atoms: _367  and  _368
REMARK  152  A    between atoms: _371  and  _373
REMARK  153  A    between atoms: _373  and  _374
REMARK  154  A    between atoms: _373  and  _376
REMARK  155  A    between atoms: _376  and  _377
REMARK  156  A    between atoms: _377  and  _378
REMARK  157  A    between atoms: _381  and  _383
REMARK  158  A    between atoms: _383  and  _384
REMARK  159  A    between atoms: _383  and  _386
REMARK  160  A    between atoms: _386  and  _387
REMARK  161  A    between atoms: _387  and  _388
REMARK  162  A    between atoms: _388  and  _389
REMARK  163  A    between atoms: _398  and  _400
REMARK  164  A    between atoms: _400  and  _401
REMARK  165  A    between atoms: _400  and  _403
REMARK  166  A    between atoms: _403  and  _404
REMARK  167  A    between atoms: _410  and  _412
REMARK  168  A    between atoms: _412  and  _413
REMARK  169  A    between atoms: _412  and  _415
REMARK  170  A    between atoms: _415  and  _416
REMARK  171  A    between atoms: _416  and  _417
REMARK  172  A    between atoms: _420  and  _422
REMARK  173  A    between atoms: _422  and  _423
REMARK  174  A    between atoms: _422  and  _425
REMARK  175  A    between atoms: _428  and  _430
REMARK  176  A    between atoms: _430  and  _431
REMARK  177  A    between atoms: _430  and  _433
REMARK  178  A    between atoms: _433  and  _434
REMARK  179  A    between atoms: _439  and  _440
REMARK  180  A    between atoms: _442  and  _444
REMARK  181  A    between atoms: _444  and  _445
REMARK  182  A    between atoms: _444  and  _447
REMARK  183  A    between atoms: _447  and  _448
REMARK  184  A    between atoms: _451  and  _453
REMARK  185  A    between atoms: _453  and  _454
REMARK  186  A    between atoms: _453  and  _456
REMARK  187  A    between atoms: _456  and  _457
REMARK  188  A    between atoms: _457  and  _458
REMARK  189  A    between atoms: _461  and  _463
REMARK  190  A    between atoms: _463  and  _464
REMARK  191  A    between atoms: _463  and  _466
REMARK  192  A    between atoms: _466  and  _467
REMARK  193  A    between atoms: _470  and  _472
REMARK  194  A    between atoms: _472  and  _473
REMARK  195  A    between atoms: _476  and  _478
REMARK  196  A    between atoms: _478  and  _479
REMARK  197  A    between atoms: _478  and  _481
REMARK  198  A    between atoms: _481  and  _482
REMARK  199  A    between atoms: _487  and  _489
REMARK  200  A    between atoms: _489  and  _490
REMARK  201  A    between atoms: _492  and  _494
REMARK  202  A    between atoms: _494  and  _495
REMARK  203  A    between atoms: _494  and  _497
REMARK  204  A    between atoms: _497  and  _498
REMARK  205  A    between atoms: _504  and  _506
REMARK  206  A    between atoms: _506  and  _507
REMARK  207  A    between atoms: _506  and  _509
REMARK  208  A    between atoms: _509  and  _510
REMARK  209  A    between atoms: _515  and  _517
REMARK  210  A    between atoms: _517  and  _518
REMARK  211  A    between atoms: _517  and  _520
REMARK  212  A    between atoms: _520  and  _521
REMARK  213  A    between atoms: _521  and  _522
REMARK  214  A    between atoms: _525  and  _527
REMARK  215  A    between atoms: _527  and  _528
REMARK  216  A    between atoms: _527  and  _530
REMARK  217  A    between atoms: _530  and  _531
REMARK  218  A    between atoms: _534  and  _536
REMARK  219  A    between atoms: _536  and  _537
REMARK  220  A    between atoms: _536  and  _539
REMARK  221  A    between atoms: _541  and  _543
REMARK  222  A    between atoms: _543  and  _544
REMARK  223  A    between atoms: _543  and  _546
REMARK  224  A    between atoms: _546  and  _547
REMARK  225  A    between atoms: _549  and  _551
REMARK  226  A    between atoms: _551  and  _552
REMARK  227  A    between atoms: _554  and  _556
REMARK  228  A    between atoms: _556  and  _557
REMARK  229  A    between atoms: _556  and  _559
REMARK  230  A    between atoms: _562  and  _564
REMARK  231  A    between atoms: _564  and  _565
REMARK  232  A    between atoms: _568  and  _570
REMARK  233  A    between atoms: _570  and  _571
REMARK  234  A    between atoms: _570  and  _573
REMARK  235  A    between atoms: _573  and  _574
REMARK  236  A    between atoms: _577  and  _579
REMARK  237  A    between atoms: _579  and  _580
REMARK  238  A    between atoms: _582  and  _584
REMARK  239  A    between atoms: _584  and  _585
REMARK  240  A    between atoms: _584  and  _587
REMARK  241  A    between atoms: _590  and  _592
REMARK  242  A    between atoms: _592  and  _593
REMARK  243  A    between atoms: _592  and  _595
REMARK  244  A    between atoms: _595  and  _596
REMARK  245  A    between atoms: _599  and  _601
REMARK  246  A    between atoms: _601  and  _602
REMARK  247  A    between atoms: _601  and  _604
REMARK  248  A    between atoms: _604  and  _605
REMARK  249  A    between atoms: _605  and  _606
REMARK  250  A    between atoms: _606  and  _607
REMARK  251  A    between atoms: _616  and  _618
REMARK  252  A    between atoms: _618  and  _619
REMARK  253  A    between atoms: _618  and  _621
REMARK  254  A    between atoms: _621  and  _622
REMARK  255  A    between atoms: _625  and  _627
REMARK  256  A    between atoms: _627  and  _628
REMARK  257  A    between atoms: _627  and  _630
REMARK  258  A    between atoms: _630  and  _631
REMARK  259  A    between atoms: _634  and  _636
REMARK  260  A    between atoms: _636  and  _637
REMARK  261  A    between atoms: _636  and  _639
REMARK  262  A    between atoms: _639  and  _640
REMARK                            x       y       z     vdW  Elec       q    Type
REMARK                         _______ _______ _______ _____ _____    ______ ____
ROOT
ATOM      1  O   HOH     1       5.188   6.100 -14.619  0.00  0.00    +0.000 OA
ENDROOT
TORSDOF 0
REMARK  Name = ../refined-set-2016/3a5y/3a5y_pocket.pdb
REMARK  262 active torsions:
REMARK  status: ('A' for Active; 'I' for Inactive)
REMARK    1  A    between atoms: _1  and  _3
REMARK    2  A    between atoms: _3  and  _4
REMARK    3  A    between atoms: _3  and  _6
REMARK    4  A    between atoms: _9  and  _11
REMARK    5  A    between atoms: _11  and  _12
REMARK    6  A    between atoms: _11  and  _14
REMARK    7  A    between atoms: _14  and  _15
REMARK    8  A    between atoms: _18  and  _20
REMARK    9  A    between atoms: _20  and  _21
REMARK   10  A    between atoms: _20  and  _23
REMARK   11  A    between atoms: _23  and  _24
REMARK   12  A    between atoms: _29  and  _31
REMARK   13  A    between atoms: _31  and  _32
REMARK   14  A    between atoms: _31  and  _34
REMARK   15  A    between atoms: _34  and  _35
REMARK   16  A    between atoms: _38  and  _40
REMARK   17  A    between atoms: _40  and  _41
REMARK   18  A    between atoms: _40  and  _43
REMARK   19  A    between atoms: _43  and  _44
REMARK   20  A    between atoms: _47  and  _49
REMARK   21  A    between atoms: _49  and  _50
REMARK   22  A    between atoms: _49  and  _52
REMARK   23  A    between atoms: _52  and  _53
REMARK   24  A    between atoms: _56  and  _57
REMARK   25  A    between atoms: _62  and  _64
REMARK   26  A    between atoms: _64  and  _65
REMARK   27  A    between atoms: _64  and  _67
REMARK   28  A    between atoms: _67  and  _68
REMARK   29  A    between atoms: _68  and  _69
REMARK   30  A    between atoms: _72  and  _74
REMARK   31  A    between atoms: _74  and  _75
REMARK   32  A    between atoms: _74  and  _77
REMARK   33  A    between atoms: _77  and  _78
REMARK   34  A    between atoms: _83  and  _84
REMARK   35  A    between atoms: _86  and  _88
REMARK   36  A    between atoms: _88  and  _89
REMARK   37  A    between atoms: _88  and  _91
REMARK   38  A    between atoms: _91  and  _92
REMARK   39  A    between atoms: _92  and  _93
REMARK   40  A    between atoms: _95  and  _97
REMARK   41  A    between atoms: _97  and  _98
REMARK   42  A    between atoms: _97  and  _100
REMARK   43  A    between atoms: _100  and  _101
REMARK   44  A    between atoms: _101  and  _102
REMARK   45  A    between atoms: _102  and  _103
REMARK   46  A    between atoms: _103  and  _104
REMARK   47  A    between atoms: _108  and  _110
REMARK   48  A    between atoms: _110  and  _111
REMARK   49  A    between atoms: _110  and  _113
REMARK   50  A    between atoms: _113  and  _114
REMARK   51  A    between atoms: _116  and  _118
REMARK   52  A    between atoms: _118  and  _119
REMARK   53  A    between atoms: _118  and  _121
REMARK   54  A    between atoms: _121  and  _122
REMARK   55  A    between atoms: _128  and  _130
REMARK   56  A    between atoms: _130  and  _131
REMARK   57  A    between atoms: _130  and  _133
REMARK   58  A    between atoms: _133  and  _134
REMARK   59  A    between atoms: _134  and  _135
REMARK   60  A    between atoms: _135  and  _136
REMARK   61  A    between atoms: _145  and  _147
REMARK   62  A    between atoms: _147  and  _148
REMARK   63  A    between atoms: _147  and  _150
REMARK   64  A    between atoms: _150  and  _151
REMARK   65  A    between atoms: _156  and  _158
REMARK   66  A    between atoms: _158  and  _159
REMARK   67  A    between atoms: _158  and  _161
REMARK   68  A    between atoms: _161  and  _162
REMARK   69  A    between atoms: _162  and  _163
REMARK   70  A    between atoms: _166  and  _168
REMARK   71  A    between atoms: _168  and  _169
REMARK   72  A    between atoms: _168  and  _171
REMARK   73  A    between atoms: _171  and  _172
REMARK   74  A    between atoms: _172  and  _173
REMARK   75  A    between atoms: _176  and  _178
REMARK   76  A    between atoms: _178  and  _179
REMARK   77  A    between atoms: _178  and  _181
REMARK   78  A    between atoms: _181  and  _182
REMARK   79  A    between atoms: _182  and  _183
REMARK   80  A    between atoms: _185  and  _187
REMARK   81  A    between atoms: _187  and  _188
REMARK   82  A    between atoms: _190  and  _192
REMARK   83  A    between atoms: _192  and  _193
REMARK   84  A    between atoms: _192  and  _195
REMARK   85  A    between atoms: _195  and  _196
REMARK   86  A    between atoms: _196  and  _197
REMARK   87  A    between atoms: _197  and  _198
REMARK   88  A    between atoms: _207  and  _209
REMARK   89  A    between atoms: _209  and  _210
REMARK   90  A    between atoms: _209  and  _212
REMARK   91  A    between atoms: _212  and  _213
REMARK   92  A    between atoms: _218  and  _219
REMARK   93  A    between atoms: _221  and  _223
REMARK   94  A    between atoms: _223  and  _224
REMARK   95  A    between atoms: _223  and  _226
REMARK   96  A    between atoms: _226  and  _227
REMARK   97  A    between atoms: _232  and  _234
REMARK   98  A    between atoms: _234  and  _235
REMARK   99  A    between atoms: _234  and  _237
REMARK  100  A    between atoms: _237  and  _238
REMARK  101  A    between atoms: _244  and  _245
REMARK  102  A    between atoms: _250  and  _252
REMARK  103  A    between atoms: _252  and  _253
REMARK  104  A    between atoms: _252  and  _255
REMARK  105  A    between atoms: _255  and  _256
REMARK  106  A    between atoms: _256  and  _257
REMARK  107  A    between atoms: _260  and  _262
REMARK  108  A    between atoms: _262  and  _263
REMARK  109  A    between atoms: _262  and  _265
REMARK  110  A    between atoms: _265  and  _266
REMARK  111  A    between atoms: _272  and  _274
REMARK  112  A    between atoms: _274  and  _275
REMARK  113  A    between atoms: _274  and  _277
REMARK  114  A    between atoms: _277  and  _278
REMARK  115  A    between atoms: _281  and  _283
REMARK  116  A    between atoms: _283  and  _284
REMARK  117  A    between atoms: _283  and  _286
REMARK  118  A    between atoms: _286  and  _287
REMARK  119  A    between atoms: _287  and  _288
REMARK  120  A    between atoms: _290  and  _292
REMARK  121  A    between atoms: _292  and  _293
REMARK  122  A    between atoms: _292  and  _295
REMARK  123  A    between atoms: _295  and  _296
REMARK  124  A    between atoms: _299  and  _301
REMARK  125  A    between atoms: _301  and  _302
REMARK  126  A    between atoms: _301  and  _304
REMARK  127  A    between atoms: _304  and  _305
REMARK  128  A    between atoms: _305  and  _306
REMARK  129  A    between atoms: _309  and  _311
REMARK  130  A    between atoms: _311  and  _312
REMARK  131  A    between atoms: _311  and  _314
REMARK  132  A    between atoms: _314  and  _315
REMARK  133  A    between atoms: _325  and  _327
REMARK  134  A    between atoms: _327  and  _328
REMARK  135  A    between atoms: _327  and  _330
REMARK  136  A    between atoms: _330  and  _331
REMARK  137  A    between atoms: _336  and  _337
REMARK  138  A    between atoms: _339  and  _341
REMARK  139  A    between atoms: _341  and  _342
REMARK  140  A    between atoms: _341  and  _344
REMARK  141  A    between atoms: _344  and  _345
REMARK  142  A    between atoms: _348  and  _350
REMARK  143  A    between atoms: _350  and  _351
REMARK  144  A    between atoms: _350  and  _353
REMARK  145  A    between atoms: _353  and  _354
REMARK  146  A    between atoms: _356  and  _358
REMARK  147  A    between atoms: _358  and  _359
REMARK  148  A    between atoms: _358  and  _361
REMARK  149  A    between atoms: _361  and  _362
REMARK  150  A    between atoms: _365  and  _367
REMARK  151  A    between atoms: _367  and  _368
REMARK  152  A    between atoms: _371  and  _373
REMARK  153  A    between atoms: _373  and  _374
REMARK  154  A    between atoms: _373  and  _376
REMARK  155  A    between atoms: _376  and  _377
REMARK  156  A    between atoms: _377  and  _378
REMARK  157  A    between atoms: _381  and  _383
REMARK  158  A    between atoms: _383  and  _384
REMARK  159  A    between atoms: _383  and  _386
REMARK  160  A    between atoms: _386  and  _387
REMARK  161  A    between atoms: _387  and  _388
REMARK  162  A    between atoms: _388  and  _389
REMARK  163  A    between atoms: _398  and  _400
REMARK  164  A    between atoms: _400  and  _401
REMARK  165  A    between atoms: _400  and  _403
REMARK  166  A    between atoms: _403  and  _404
REMARK  167  A    between atoms: _410  and  _412
REMARK  168  A    between atoms: _412  and  _413
REMARK  169  A    between atoms: _412  and  _415
REMARK  170  A    between atoms: _415  and  _416
REMARK  171  A    between atoms: _416  and  _417
REMARK  172  A    between atoms: _420  and  _422
REMARK  173  A    between atoms: _422  and  _423
REMARK  174  A    between atoms: _422  and  _425
REMARK  175  A    between atoms: _428  and  _430
REMARK  176  A    between atoms: _430  and  _431
REMARK  177  A    between atoms: _430  and  _433
REMARK  178  A    between atoms: _433  and  _434
REMARK  179  A    between atoms: _439  and  _440
REMARK  180  A    between atoms: _442  and  _444
REMARK  181  A    between atoms: _444  and  _445
REMARK  182  A    between atoms: _444  and  _447
REMARK  183  A    between atoms: _447  and  _448
REMARK  184  A    between atoms: _451  and  _453
REMARK  185  A    between atoms: _453  and  _454
REMARK  186  A    between atoms: _453  and  _456
REMARK  187  A    between atoms: _456  and  _457
REMARK  188  A    between atoms: _457  and  _458
REMARK  189  A    between atoms: _461  and  _463
REMARK  190  A    between atoms: _463  and  _464
REMARK  191  A    between atoms: _463  and  _466
REMARK  192  A    between atoms: _466  and  _467
REMARK  193  A    between atoms: _470  and  _472
REMARK  194  A    between atoms: _472  and  _473
REMARK  195  A    between atoms: _476  and  _478
REMARK  196  A    between atoms: _478  and  _479
REMARK  197  A    between atoms: _478  and  _481
REMARK  198  A    between atoms: _481  and  _482
REMARK  199  A    between atoms: _487  and  _489
REMARK  200  A    between atoms: _489  and  _490
REMARK  201  A    between atoms: _492  and  _494
REMARK  202  A    between atoms: _494  and  _495
REMARK  203  A    between atoms: _494  and  _497
REMARK  204  A    between atoms: _497  and  _498
REMARK  205  A    between atoms: _504  and  _506
REMARK  206  A    between atoms: _506  and  _507
REMARK  207  A    between atoms: _506  and  _509
REMARK  208  A    between atoms: _509  and  _510
REMARK  209  A    between atoms: _515  and  _517
REMARK  210  A    between atoms: _517  and  _518
REMARK  211  A    between atoms: _517  and  _520
REMARK  212  A    between atoms: _520  and  _521
REMARK  213  A    between atoms: _521  and  _522
REMARK  214  A    between atoms: _525  and  _527
REMARK  215  A    between atoms: _527  and  _528
REMARK  216  A    between atoms: _527  and  _530
REMARK  217  A    between atoms: _530  and  _531
REMARK  218  A    between atoms: _534  and  _536
REMARK  219  A    between atoms: _536  and  _537
REMARK  220  A    between atoms: _536  and  _539
REMARK  221  A    between atoms: _541  and  _543
REMARK  222  A    between atoms: _543  and  _544
REMARK  223  A    between atoms: _543  and  _546
REMARK  224  A    between atoms: _546  and  _547
REMARK  225  A    between atoms: _549  and  _551
REMARK  226  A    between atoms: _551  and  _552
REMARK  227  A    between atoms: _554  and  _556
REMARK  228  A    between atoms: _556  and  _557
REMARK  229  A    between atoms: _556  and  _559
REMARK  230  A    between atoms: _562  and  _564
REMARK  231  A    between atoms: _564  and  _565
REMARK  232  A    between atoms: _568  and  _570
REMARK  233  A    between atoms: _570  and  _571
REMARK  234  A    between atoms: _570  and  _573
REMARK  235  A    between atoms: _573  and  _574
REMARK  236  A    between atoms: _577  and  _579
REMARK  237  A    between atoms: _579  and  _580
REMARK  238  A    between atoms: _582  and  _584
REMARK  239  A    between atoms: _584  and  _585
REMARK  240  A    between atoms: _584  and  _587
REMARK  241  A    between atoms: _590  and  _592
REMARK  242  A    between atoms: _592  and  _593
REMARK  243  A    between atoms: _592  and  _595
REMARK  244  A    between atoms: _595  and  _596
REMARK  245  A    between atoms: _599  and  _601
REMARK  246  A    between atoms: _601  and  _602
REMARK  247  A    between atoms: _601  and  _604
REMARK  248  A    between atoms: _604  and  _605
REMARK  249  A    between atoms: _605  and  _606
REMARK  250  A    between atoms: _606  and  _607
REMARK  251  A    between atoms: _616  and  _618
REMARK  252  A    between atoms: _618  and  _619
REMARK  253  A    between atoms: _618  and  _621
REMARK  254  A    between atoms: _621  and  _622
REMARK  255  A    between atoms: _625  and  _627
REMARK  256  A    between atoms: _627  and  _628
REMARK  257  A    between atoms: _627  and  _630
REMARK  258  A    between atoms: _630  and  _631
REMARK  259  A    between atoms: _634  and  _636
REMARK  260  A    between atoms: _636  and  _637
REMARK  261  A    between atoms: _636  and  _639
REMARK  262  A    between atoms: _639  and  _640
REMARK                            x       y       z     vdW  Elec       q    Type
REMARK                         _______ _______ _______ _____ _____    ______ ____
ROOT
ATOM      1  O   HOH     1      10.005   0.364 -15.533  0.00  0.00    +0.000 OA
ENDROOT
TORSDOF 0
REMARK  Name = ../refined-set-2016/3a5y/3a5y_pocket.pdb
REMARK  262 active torsions:
REMARK  status: ('A' for Active; 'I' for Inactive)
REMARK    1  A    between atoms: _1  and  _3
REMARK    2  A    between atoms: _3  and  _4
REMARK    3  A    between atoms: _3  and  _6
REMARK    4  A    between atoms: _9  and  _11
REMARK    5  A    between atoms: _11  and  _12
REMARK    6  A    between atoms: _11  and  _14
REMARK    7  A    between atoms: _14  and  _15
REMARK    8  A    between atoms: _18  and  _20
REMARK    9  A    between atoms: _20  and  _21
REMARK   10  A    between atoms: _20  and  _23
REMARK   11  A    between atoms: _23  and  _24
REMARK   12  A    between atoms: _29  and  _31
REMARK   13  A    between atoms: _31  and  _32
REMARK   14  A    between atoms: _31  and  _34
REMARK   15  A    between atoms: _34  and  _35
REMARK   16  A    between atoms: _38  and  _40
REMARK   17  A    between atoms: _40  and  _41
REMARK   18  A    between atoms: _40  and  _43
REMARK   19  A    between atoms: _43  and  _44
REMARK   20  A    between atoms: _47  and  _49
REMARK   21  A    between atoms: _49  and  _50
REMARK   22  A    between atoms: _49  and  _52
REMARK   23  A    between atoms: _52  and  _53
REMARK   24  A    between atoms: _56  and  _57
REMARK   25  A    between atoms: _62  and  _64
REMARK   26  A    between atoms: _64  and  _65
REMARK   27  A    between atoms: _64  and  _67
REMARK   28  A    between atoms: _67  and  _68
REMARK   29  A    between atoms: _68  and  _69
REMARK   30  A    between atoms: _72  and  _74
REMARK   31  A    between atoms: _74  and  _75
REMARK   32  A    between atoms: _74  and  _77
REMARK   33  A    between atoms: _77  and  _78
REMARK   34  A    between atoms: _83  and  _84
REMARK   35  A    between atoms: _86  and  _88
REMARK   36  A    between atoms: _88  and  _89
REMARK   37  A    between atoms: _88  and  _91
REMARK   38  A    between atoms: _91  and  _92
REMARK   39  A    between atoms: _92  and  _93
REMARK   40  A    between atoms: _95  and  _97
REMARK   41  A    between atoms: _97  and  _98
REMARK   42  A    between atoms: _97  and  _100
REMARK   43  A    between atoms: _100  and  _101
REMARK   44  A    between atoms: _101  and  _102
REMARK   45  A    between atoms: _102  and  _103
REMARK   46  A    between atoms: _103  and  _104
REMARK   47  A    between atoms: _108  and  _110
REMARK   48  A    between atoms: _110  and  _111
REMARK   49  A    between atoms: _110  and  _113
REMARK   50  A    between atoms: _113  and  _114
REMARK   51  A    between atoms: _116  and  _118
REMARK   52  A    between atoms: _118  and  _119
REMARK   53  A    between atoms: _118  and  _121
REMARK   54  A    between atoms: _121  and  _122
REMARK   55  A    between atoms: _128  and  _130
REMARK   56  A    between atoms: _130  and  _131
REMARK   57  A    between atoms: _130  and  _133
REMARK   58  A    between atoms: _133  and  _134
REMARK   59  A    between atoms: _134  and  _135
REMARK   60  A    between atoms: _135  and  _136
REMARK   61  A    between atoms: _145  and  _147
REMARK   62  A    between atoms: _147  and  _148
REMARK   63  A    between atoms: _147  and  _150
REMARK   64  A    between atoms: _150  and  _151
REMARK   65  A    between atoms: _156  and  _158
REMARK   66  A    between atoms: _158  and  _159
REMARK   67  A    between atoms: _158  and  _161
REMARK   68  A    between atoms: _161  and  _162
REMARK   69  A    between atoms: _162  and  _163
REMARK   70  A    between atoms: _166  and  _168
REMARK   71  A    between atoms: _168  and  _169
REMARK   72  A    between atoms: _168  and  _171
REMARK   73  A    between atoms: _171  and  _172
REMARK   74  A    between atoms: _172  and  _173
REMARK   75  A    between atoms: _176  and  _178
REMARK   76  A    between atoms: _178  and  _179
REMARK   77  A    between atoms: _178  and  _181
REMARK   78  A    between atoms: _181  and  _182
REMARK   79  A    between atoms: _182  and  _183
REMARK   80  A    between atoms: _185  and  _187
REMARK   81  A    between atoms: _187  and  _188
REMARK   82  A    between atoms: _190  and  _192
REMARK   83  A    between atoms: _192  and  _193
REMARK   84  A    between atoms: _192  and  _195
REMARK   85  A    between atoms: _195  and  _196
REMARK   86  A    between atoms: _196  and  _197
REMARK   87  A    between atoms: _197  and  _198
REMARK   88  A    between atoms: _207  and  _209
REMARK   89  A    between atoms: _209  and  _210
REMARK   90  A    between atoms: _209  and  _212
REMARK   91  A    between atoms: _212  and  _213
REMARK   92  A    between atoms: _218  and  _219
REMARK   93  A    between atoms: _221  and  _223
REMARK   94  A    between atoms: _223  and  _224
REMARK   95  A    between atoms: _223  and  _226
REMARK   96  A    between atoms: _226  and  _227
REMARK   97  A    between atoms: _232  and  _234
REMARK   98  A    between atoms: _234  and  _235
REMARK   99  A    between atoms: _234  and  _237
REMARK  100  A    between atoms: _237  and  _238
REMARK  101  A    between atoms: _244  and  _245
REMARK  102  A    between atoms: _250  and  _252
REMARK  103  A    between atoms: _252  and  _253
REMARK  104  A    between atoms: _252  and  _255
REMARK  105  A    between atoms: _255  and  _256
REMARK  106  A    between atoms: _256  and  _257
REMARK  107  A    between atoms: _260  and  _262
REMARK  108  A    between atoms: _262  and  _263
REMARK  109  A    between atoms: _262  and  _265
REMARK  110  A    between atoms: _265  and  _266
REMARK  111  A    between atoms: _272  and  _274
REMARK  112  A    between atoms: _274  and  _275
REMARK  113  A    between atoms: _274  and  _277
REMARK  114  A    between atoms: _277  and  _278
REMARK  115  A    between atoms: _281  and  _283
REMARK  116  A    between atoms: _283  and  _284
REMARK  117  A    between atoms: _283  and  _286
REMARK  118  A    between atoms: _286  and  _287
REMARK  119  A    between atoms: _287  and  _288
REMARK  120  A    between atoms: _290  and  _292
REMARK  121  A    between atoms: _292  and  _293
REMARK  122  A    between atoms: _292  and  _295
REMARK  123  A    between atoms: _295  and  _296
REMARK  124  A    between atoms: _299  and  _301
REMARK  125  A    between atoms: _301  and  _302
REMARK  126  A    between atoms: _301  and  _304
REMARK  127  A    between atoms: _304  and  _305
REMARK  128  A    between atoms: _305  and  _306
REMARK  129  A    between atoms: _309  and  _311
REMARK  130  A    between atoms: _311  and  _312
REMARK  131  A    between atoms: _311  and  _314
REMARK  132  A    between atoms: _314  and  _315
REMARK  133  A    between atoms: _325  and  _327
REMARK  134  A    between atoms: _327  and  _328
REMARK  135  A    between atoms: _327  and  _330
REMARK  136  A    between atoms: _330  and  _331
REMARK  137  A    between atoms: _336  and  _337
REMARK  138  A    between atoms: _339  and  _341
REMARK  139  A    between atoms: _341  and  _342
REMARK  140  A    between atoms: _341  and  _344
REMARK  141  A    between atoms: _344  and  _345
REMARK  142  A    between atoms: _348  and  _350
REMARK  143  A    between atoms: _350  and  _351
REMARK  144  A    between atoms: _350  and  _353
REMARK  145  A    between atoms: _353  and  _354
REMARK  146  A    between atoms: _356  and  _358
REMARK  147  A    between atoms: _358  and  _359
REMARK  148  A    between atoms: _358  and  _361
REMARK  149  A    between atoms: _361  and  _362
REMARK  150  A    between atoms: _365  and  _367
REMARK  151  A    between atoms: _367  and  _368
REMARK  152  A    between atoms: _371  and  _373
REMARK  153  A    between atoms: _373  and  _374
REMARK  154  A    between atoms: _373  and  _376
REMARK  155  A    between atoms: _376  and  _377
REMARK  156  A    between atoms: _377  and  _378
REMARK  157  A    between atoms: _381  and  _383
REMARK  158  A    between atoms: _383  and  _384
REMARK  159  A    between atoms: _383  and  _386
REMARK  160  A    between atoms: _386  and  _387
REMARK  161  A    between atoms: _387  and  _388
REMARK  162  A    between atoms: _388  and  _389
REMARK  163  A    between atoms: _398  and  _400
REMARK  164  A    between atoms: _400  and  _401
REMARK  165  A    between atoms: _400  and  _403
REMARK  166  A    between atoms: _403  and  _404
REMARK  167  A    between atoms: _410  and  _412
REMARK  168  A    between atoms: _412  and  _413
REMARK  169  A    between atoms: _412  and  _415
REMARK  170  A    between atoms: _415  and  _416
REMARK  171  A    between atoms: _416  and  _417
REMARK  172  A    between atoms: _420  and  _422
REMARK  173  A    between atoms: _422  and  _423
REMARK  174  A    between atoms: _422  and  _425
REMARK  175  A    between atoms: _428  and  _430
REMARK  176  A    between atoms: _430  and  _431
REMARK  177  A    between atoms: _430  and  _433
REMARK  178  A    between atoms: _433  and  _434
REMARK  179  A    between atoms: _439  and  _440
REMARK  180  A    between atoms: _442  and  _444
REMARK  181  A    between atoms: _444  and  _445
REMARK  182  A    between atoms: _444  and  _447
REMARK  183  A    between atoms: _447  and  _448
REMARK  184  A    between atoms: _451  and  _453
REMARK  185  A    between atoms: _453  and  _454
REMARK  186  A    between atoms: _453  and  _456
REMARK  187  A    between atoms: _456  and  _457
REMARK  188  A    between atoms: _457  and  _458
REMARK  189  A    between atoms: _461  and  _463
REMARK  190  A    between atoms: _463  and  _464
REMARK  191  A    between atoms: _463  and  _466
REMARK  192  A    between atoms: _466  and  _467
REMARK  193  A    between atoms: _470  and  _472
REMARK  194  A    between atoms: _472  and  _473
REMARK  195  A    between atoms: _476  and  _478
REMARK  196  A    between atoms: _478  and  _479
REMARK  197  A    between atoms: _478  and  _481
REMARK  198  A    between atoms: _481  and  _482
REMARK  199  A    between atoms: _487  and  _489
REMARK  200  A    between atoms: _489  and  _490
REMARK  201  A    between atoms: _492  and  _494
REMARK  202  A    between atoms: _494  and  _495
REMARK  203  A    between atoms: _494  and  _497
REMARK  204  A    between atoms: _497  and  _498
REMARK  205  A    between atoms: _504  and  _506
REMARK  206  A    between atoms: _506  and  _507
REMARK  207  A    between atoms: _506  and  _509
REMARK  208  A    between atoms: _509  and  _510
REMARK  209  A    between atoms: _515  and  _517
REMARK  210  A    between atoms: _517  and  _518
REMARK  211  A    between atoms: _517  and  _520
REMARK  212  A    between atoms: _520  and  _521
REMARK  213  A    between atoms: _521  and  _522
REMARK  214  A    between atoms: _525  and  _527
REMARK  215  A    between atoms: _527  and  _528
REMARK  216  A    between atoms: _527  and  _530
REMARK  217  A    between atoms: _530  and  _531
REMARK  218  A    between atoms: _534  and  _536
REMARK  219  A    between atoms: _536  and  _537
REMARK  220  A    between atoms: _536  and  _539
REMARK  221  A    between atoms: _541  and  _543
REMARK  222  A    between atoms: _543  and  _544
REMARK  223  A    between atoms: _543  and  _546
REMARK  224  A    between atoms: _546  and  _547
REMARK  225  A    between atoms: _549  and  _551
REMARK  226  A    between atoms: _551  and  _552
REMARK  227  A    between atoms: _554  and  _556
REMARK  228  A    between atoms: _556  and  _557
REMARK  229  A    between atoms: _556  and  _559
REMARK  230  A    between atoms: _562  and  _564
REMARK  231  A    between atoms: _564  and  _565
REMARK  232  A    between atoms: _568  and  _570
REMARK  233  A    between atoms: _570  and  _571
REMARK  234  A    between atoms: _570  and  _573
REMARK  235  A    between atoms: _573  and  _574
REMARK  236  A    between atoms: _577  and  _579
REMARK  237  A    between atoms: _579  and  _580
REMARK  238  A    between atoms: _582  and  _584
REMARK  239  A    between atoms: _584  and  _585
REMARK  240  A    between atoms: _584  and  _587
REMARK  241  A    between atoms: _590  and  _592
REMARK  242  A    between atoms: _592  and  _593
REMARK  243  A    between atoms: _592  and  _595
REMARK  244  A    between atoms: _595  and  _596
REMARK  245  A    between atoms: _599  and  _601
REMARK  246  A    between atoms: _601  and  _602
REMARK  247  A    between atoms: _601  and  _604
REMARK  248  A    between atoms: _604  and  _605
REMARK  249  A    between atoms: _605  and  _606
REMARK  250  A    between atoms: _606  and  _607
REMARK  251  A    between atoms: _616  and  _618
REMARK  252  A    between atoms: _618  and  _619
REMARK  253  A    between atoms: _618  and  _621
REMARK  254  A    between atoms: _621  and  _622
REMARK  255  A    between atoms: _625  and  _627
REMARK  256  A    between atoms: _627  and  _628
REMARK  257  A    between atoms: _627  and  _630
REMARK  258  A    between atoms: _630  and  _631
REMARK  259  A    between atoms: _634  and  _636
REMARK  260  A    between atoms: _636  and  _637
REMARK  261  A    between atoms: _636  and  _639
REMARK  262  A    between atoms: _639  and  _640
REMARK                            x       y       z     vdW  Elec       q    Type
REMARK                         _______ _______ _______ _____ _____    ______ ____
ROOT
ATOM      1  O   HOH     1      -7.259  -5.500  -3.306  0.00  0.00    +0.000 OA
ENDROOT
TORSDOF 0
REMARK  Name = ../refined-set-2016/3a5y/3a5y_pocket.pdb
REMARK  262 active torsions:
REMARK  status: ('A' for Active; 'I' for Inactive)
REMARK    1  A    between atoms: _1  and  _3
REMARK    2  A    between atoms: _3  and  _4
REMARK    3  A    between atoms: _3  and  _6
REMARK    4  A    between atoms: _9  and  _11
REMARK    5  A    between atoms: _11  and  _12
REMARK    6  A    between atoms: _11  and  _14
REMARK    7  A    between atoms: _14  and  _15
REMARK    8  A    between atoms: _18  and  _20
REMARK    9  A    between atoms: _20  and  _21
REMARK   10  A    between atoms: _20  and  _23
REMARK   11  A    between atoms: _23  and  _24
REMARK   12  A    between atoms: _29  and  _31
REMARK   13  A    between atoms: _31  and  _32
REMARK   14  A    between atoms: _31  and  _34
REMARK   15  A    between atoms: _34  and  _35
REMARK   16  A    between atoms: _38  and  _40
REMARK   17  A    between atoms: _40  and  _41
REMARK   18  A    between atoms: _40  and  _43
REMARK   19  A    between atoms: _43  and  _44
REMARK   20  A    between atoms: _47  and  _49
REMARK   21  A    between atoms: _49  and  _50
REMARK   22  A    between atoms: _49  and  _52
REMARK   23  A    between atoms: _52  and  _53
REMARK   24  A    between atoms: _56  and  _57
REMARK   25  A    between atoms: _62  and  _64
REMARK   26  A    between atoms: _64  and  _65
REMARK   27  A    between atoms: _64  and  _67
REMARK   28  A    between atoms: _67  and  _68
REMARK   29  A    between atoms: _68  and  _69
REMARK   30  A    between atoms: _72  and  _74
REMARK   31  A    between atoms: _74  and  _75
REMARK   32  A    between atoms: _74  and  _77
REMARK   33  A    between atoms: _77  and  _78
REMARK   34  A    between atoms: _83  and  _84
REMARK   35  A    between atoms: _86  and  _88
REMARK   36  A    between atoms: _88  and  _89
REMARK   37  A    between atoms: _88  and  _91
REMARK   38  A    between atoms: _91  and  _92
REMARK   39  A    between atoms: _92  and  _93
REMARK   40  A    between atoms: _95  and  _97
REMARK   41  A    between atoms: _97  and  _98
REMARK   42  A    between atoms: _97  and  _100
REMARK   43  A    between atoms: _100  and  _101
REMARK   44  A    between atoms: _101  and  _102
REMARK   45  A    between atoms: _102  and  _103
REMARK   46  A    between atoms: _103  and  _104
REMARK   47  A    between atoms: _108  and  _110
REMARK   48  A    between atoms: _110  and  _111
REMARK   49  A    between atoms: _110  and  _113
REMARK   50  A    between atoms: _113  and  _114
REMARK   51  A    between atoms: _116  and  _118
REMARK   52  A    between atoms: _118  and  _119
REMARK   53  A    between atoms: _118  and  _121
REMARK   54  A    between atoms: _121  and  _122
REMARK   55  A    between atoms: _128  and  _130
REMARK   56  A    between atoms: _130  and  _131
REMARK   57  A    between atoms: _130  and  _133
REMARK   58  A    between atoms: _133  and  _134
REMARK   59  A    between atoms: _134  and  _135
REMARK   60  A    between atoms: _135  and  _136
REMARK   61  A    between atoms: _145  and  _147
REMARK   62  A    between atoms: _147  and  _148
REMARK   63  A    between atoms: _147  and  _150
REMARK   64  A    between atoms: _150  and  _151
REMARK   65  A    between atoms: _156  and  _158
REMARK   66  A    between atoms: _158  and  _159
REMARK   67  A    between atoms: _158  and  _161
REMARK   68  A    between atoms: _161  and  _162
REMARK   69  A    between atoms: _162  and  _163
REMARK   70  A    between atoms: _166  and  _168
REMARK   71  A    between atoms: _168  and  _169
REMARK   72  A    between atoms: _168  and  _171
REMARK   73  A    between atoms: _171  and  _172
REMARK   74  A    between atoms: _172  and  _173
REMARK   75  A    between atoms: _176  and  _178
REMARK   76  A    between atoms: _178  and  _179
REMARK   77  A    between atoms: _178  and  _181
REMARK   78  A    between atoms: _181  and  _182
REMARK   79  A    between atoms: _182  and  _183
REMARK   80  A    between atoms: _185  and  _187
REMARK   81  A    between atoms: _187  and  _188
REMARK   82  A    between atoms: _190  and  _192
REMARK   83  A    between atoms: _192  and  _193
REMARK   84  A    between atoms: _192  and  _195
REMARK   85  A    between atoms: _195  and  _196
REMARK   86  A    between atoms: _196  and  _197
REMARK   87  A    between atoms: _197  and  _198
REMARK   88  A    between atoms: _207  and  _209
REMARK   89  A    between atoms: _209  and  _210
REMARK   90  A    between atoms: _209  and  _212
REMARK   91  A    between atoms: _212  and  _213
REMARK   92  A    between atoms: _218  and  _219
REMARK   93  A    between atoms: _221  and  _223
REMARK   94  A    between atoms: _223  and  _224
REMARK   95  A    between atoms: _223  and  _226
REMARK   96  A    between atoms: _226  and  _227
REMARK   97  A    between atoms: _232  and  _234
REMARK   98  A    between atoms: _234  and  _235
REMARK   99  A    between atoms: _234  and  _237
REMARK  100  A    between atoms: _237  and  _238
REMARK  101  A    between atoms: _244  and  _245
REMARK  102  A    between atoms: _250  and  _252
REMARK  103  A    between atoms: _252  and  _253
REMARK  104  A    between atoms: _252  and  _255
REMARK  105  A    between atoms: _255  and  _256
REMARK  106  A    between atoms: _256  and  _257
REMARK  107  A    between atoms: _260  and  _262
REMARK  108  A    between atoms: _262  and  _263
REMARK  109  A    between atoms: _262  and  _265
REMARK  110  A    between atoms: _265  and  _266
REMARK  111  A    between atoms: _272  and  _274
REMARK  112  A    between atoms: _274  and  _275
REMARK  113  A    between atoms: _274  and  _277
REMARK  114  A    between atoms: _277  and  _278
REMARK  115  A    between atoms: _281  and  _283
REMARK  116  A    between atoms: _283  and  _284
REMARK  117  A    between atoms: _283  and  _286
REMARK  118  A    between atoms: _286  and  _287
REMARK  119  A    between atoms: _287  and  _288
REMARK  120  A    between atoms: _290  and  _292
REMARK  121  A    between atoms: _292  and  _293
REMARK  122  A    between atoms: _292  and  _295
REMARK  123  A    between atoms: _295  and  _296
REMARK  124  A    between atoms: _299  and  _301
REMARK  125  A    between atoms: _301  and  _302
REMARK  126  A    between atoms: _301  and  _304
REMARK  127  A    between atoms: _304  and  _305
REMARK  128  A    between atoms: _305  and  _306
REMARK  129  A    between atoms: _309  and  _311
REMARK  130  A    between atoms: _311  and  _312
REMARK  131  A    between atoms: _311  and  _314
REMARK  132  A    between atoms: _314  and  _315
REMARK  133  A    between atoms: _325  and  _327
REMARK  134  A    between atoms: _327  and  _328
REMARK  135  A    between atoms: _327  and  _330
REMARK  136  A    between atoms: _330  and  _331
REMARK  137  A    between atoms: _336  and  _337
REMARK  138  A    between atoms: _339  and  _341
REMARK  139  A    between atoms: _341  and  _342
REMARK  140  A    between atoms: _341  and  _344
REMARK  141  A    between atoms: _344  and  _345
REMARK  142  A    between atoms: _348  and  _350
REMARK  143  A    between atoms: _350  and  _351
REMARK  144  A    between atoms: _350  and  _353
REMARK  145  A    between atoms: _353  and  _354
REMARK  146  A    between atoms: _356  and  _358
REMARK  147  A    between atoms: _358  and  _359
REMARK  148  A    between atoms: _358  and  _361
REMARK  149  A    between atoms: _361  and  _362
REMARK  150  A    between atoms: _365  and  _367
REMARK  151  A    between atoms: _367  and  _368
REMARK  152  A    between atoms: _371  and  _373
REMARK  153  A    between atoms: _373  and  _374
REMARK  154  A    between atoms: _373  and  _376
REMARK  155  A    between atoms: _376  and  _377
REMARK  156  A    between atoms: _377  and  _378
REMARK  157  A    between atoms: _381  and  _383
REMARK  158  A    between atoms: _383  and  _384
REMARK  159  A    between atoms: _383  and  _386
REMARK  160  A    between atoms: _386  and  _387
REMARK  161  A    between atoms: _387  and  _388
REMARK  162  A    between atoms: _388  and  _389
REMARK  163  A    between atoms: _398  and  _400
REMARK  164  A    between atoms: _400  and  _401
REMARK  165  A    between atoms: _400  and  _403
REMARK  166  A    between atoms: _403  and  _404
REMARK  167  A    between atoms: _410  and  _412
REMARK  168  A    between atoms: _412  and  _413
REMARK  169  A    between atoms: _412  and  _415
REMARK  170  A    between atoms: _415  and  _416
REMARK  171  A    between atoms: _416  and  _417
REMARK  172  A    between atoms: _420  and  _422
REMARK  173  A    between atoms: _422  and  _423
REMARK  174  A    between atoms: _422  and  _425
REMARK  175  A    between atoms: _428  and  _430
REMARK  176  A    between atoms: _430  and  _431
REMARK  177  A    between atoms: _430  and  _433
REMARK  178  A    between atoms: _433  and  _434
REMARK  179  A    between atoms: _439  and  _440
REMARK  180  A    between atoms: _442  and  _444
REMARK  181  A    between atoms: _444  and  _445
REMARK  182  A    between atoms: _444  and  _447
REMARK  183  A    between atoms: _447  and  _448
REMARK  184  A    between atoms: _451  and  _453
REMARK  185  A    between atoms: _453  and  _454
REMARK  186  A    between atoms: _453  and  _456
REMARK  187  A    between atoms: _456  and  _457
REMARK  188  A    between atoms: _457  and  _458
REMARK  189  A    between atoms: _461  and  _463
REMARK  190  A    between atoms: _463  and  _464
REMARK  191  A    between atoms: _463  and  _466
REMARK  192  A    between atoms: _466  and  _467
REMARK  193  A    between atoms: _470  and  _472
REMARK  194  A    between atoms: _472  and  _473
REMARK  195  A    between atoms: _476  and  _478
REMARK  196  A    between atoms: _478  and  _479
REMARK  197  A    between atoms: _478  and  _481
REMARK  198  A    between atoms: _481  and  _482
REMARK  199  A    between atoms: _487  and  _489
REMARK  200  A    between atoms: _489  and  _490
REMARK  201  A    between atoms: _492  and  _494
REMARK  202  A    between atoms: _494  and  _495
REMARK  203  A    between atoms: _494  and  _497
REMARK  204  A    between atoms: _497  and  _498
REMARK  205  A    between atoms: _504  and  _506
REMARK  206  A    between atoms: _506  and  _507
REMARK  207  A    between atoms: _506  and  _509
REMARK  208  A    between atoms: _509  and  _510
REMARK  209  A    between atoms: _515  and  _517
REMARK  210  A    between atoms: _517  and  _518
REMARK  211  A    between atoms: _517  and  _520
REMARK  212  A    between atoms: _520  and  _521
REMARK  213  A    between atoms: _521  and  _522
REMARK  214  A    between atoms: _525  and  _527
REMARK  215  A    between atoms: _527  and  _528
REMARK  216  A    between atoms: _527  and  _530
REMARK  217  A    between atoms: _530  and  _531
REMARK  218  A    between atoms: _534  and  _536
REMARK  219  A    between atoms: _536  and  _537
REMARK  220  A    between atoms: _536  and  _539
REMARK  221  A    between atoms: _541  and  _543
REMARK  222  A    between atoms: _543  and  _544
REMARK  223  A    between atoms: _543  and  _546
REMARK  224  A    between atoms: _546  and  _547
REMARK  225  A    between atoms: _549  and  _551
REMARK  226  A    between atoms: _551  and  _552
REMARK  227  A    between atoms: _554  and  _556
REMARK  228  A    between atoms: _556  and  _557
REMARK  229  A    between atoms: _556  and  _559
REMARK  230  A    between atoms: _562  and  _564
REMARK  231  A    between atoms: _564  and  _565
REMARK  232  A    between atoms: _568  and  _570
REMARK  233  A    between atoms: _570  and  _571
REMARK  234  A    between atoms: _570  and  _573
REMARK  235  A    between atoms: _573  and  _574
REMARK  236  A    between atoms: _577  and  _579
REMARK  237  A    between atoms: _579  and  _580
REMARK  238  A    between atoms: _582  and  _584
REMARK  239  A    between atoms: _584  and  _585
REMARK  240  A    between atoms: _584  and  _587
REMARK  241  A    between atoms: _590  and  _592
REMARK  242  A    between atoms: _592  and  _593
REMARK  243  A    between atoms: _592  and  _595
REMARK  244  A    between atoms: _595  and  _596
REMARK  245  A    between atoms: _599  and  _601
REMARK  246  A    between atoms: _601  and  _602
REMARK  247  A    between atoms: _601  and  _604
REMARK  248  A    between atoms: _604  and  _605
REMARK  249  A    between atoms: _605  and  _606
REMARK  250  A    between atoms: _606  and  _607
REMARK  251  A    between atoms: _616  and  _618
REMARK  252  A    between atoms: _618  and  _619
REMARK  253  A    between atoms: _618  and  _621
REMARK  254  A    between atoms: _621  and  _622
REMARK  255  A    between atoms: _625  and  _627
REMARK  256  A    between atoms: _627  and  _628
REMARK  257  A    between atoms: _627  and  _630
REMARK  258  A    between atoms: _630  and  _631
REMARK  259  A    between atoms: _634  and  _636
REMARK  260  A    between atoms: _636  and  _637
REMARK  261  A    between atoms: _636  and  _639
REMARK  262  A    between atoms: _639  and  _640
REMARK                            x       y       z     vdW  Elec       q    Type
REMARK                         _______ _______ _______ _____ _____    ______ ____
ROOT
ATOM      1  O   HOH     1      -6.323  -3.700  -1.205  0.00  0.00    +0.000 OA
ENDROOT
TORSDOF 0
REMARK  Name = ../refined-set-2016/3a5y/3a5y_pocket.pdb
REMARK  262 active torsions:
REMARK  status: ('A' for Active; 'I' for Inactive)
REMARK    1  A    between atoms: _1  and  _3
REMARK    2  A    between atoms: _3  and  _4
REMARK    3  A    between atoms: _3  and  _6
REMARK    4  A    between atoms: _9  and  _11
REMARK    5  A    between atoms: _11  and  _12
REMARK    6  A    between atoms: _11  and  _14
REMARK    7  A    between atoms: _14  and  _15
REMARK    8  A    between atoms: _18  and  _20
REMARK    9  A    between atoms: _20  and  _21
REMARK   10  A    between atoms: _20  and  _23
REMARK   11  A    between atoms: _23  and  _24
REMARK   12  A    between atoms: _29  and  _31
REMARK   13  A    between atoms: _31  and  _32
REMARK   14  A    between atoms: _31  and  _34
REMARK   15  A    between atoms: _34  and  _35
REMARK   16  A    between atoms: _38  and  _40
REMARK   17  A    between atoms: _40  and  _41
REMARK   18  A    between atoms: _40  and  _43
REMARK   19  A    between atoms: _43  and  _44
REMARK   20  A    between atoms: _47  and  _49
REMARK   21  A    between atoms: _49  and  _50
REMARK   22  A    between atoms: _49  and  _52
REMARK   23  A    between atoms: _52  and  _53
REMARK   24  A    between atoms: _56  and  _57
REMARK   25  A    between atoms: _62  and  _64
REMARK   26  A    between atoms: _64  and  _65
REMARK   27  A    between atoms: _64  and  _67
REMARK   28  A    between atoms: _67  and  _68
REMARK   29  A    between atoms: _68  and  _69
REMARK   30  A    between atoms: _72  and  _74
REMARK   31  A    between atoms: _74  and  _75
REMARK   32  A    between atoms: _74  and  _77
REMARK   33  A    between atoms: _77  and  _78
REMARK   34  A    between atoms: _83  and  _84
REMARK   35  A    between atoms: _86  and  _88
REMARK   36  A    between atoms: _88  and  _89
REMARK   37  A    between atoms: _88  and  _91
REMARK   38  A    between atoms: _91  and  _92
REMARK   39  A    between atoms: _92  and  _93
REMARK   40  A    between atoms: _95  and  _97
REMARK   41  A    between atoms: _97  and  _98
REMARK   42  A    between atoms: _97  and  _100
REMARK   43  A    between atoms: _100  and  _101
REMARK   44  A    between atoms: _101  and  _102
REMARK   45  A    between atoms: _102  and  _103
REMARK   46  A    between atoms: _103  and  _104
REMARK   47  A    between atoms: _108  and  _110
REMARK   48  A    between atoms: _110  and  _111
REMARK   49  A    between atoms: _110  and  _113
REMARK   50  A    between atoms: _113  and  _114
REMARK   51  A    between atoms: _116  and  _118
REMARK   52  A    between atoms: _118  and  _119
REMARK   53  A    between atoms: _118  and  _121
REMARK   54  A    between atoms: _121  and  _122
REMARK   55  A    between atoms: _128  and  _130
REMARK   56  A    between atoms: _130  and  _131
REMARK   57  A    between atoms: _130  and  _133
REMARK   58  A    between atoms: _133  and  _134
REMARK   59  A    between atoms: _134  and  _135
REMARK   60  A    between atoms: _135  and  _136
REMARK   61  A    between atoms: _145  and  _147
REMARK   62  A    between atoms: _147  and  _148
REMARK   63  A    between atoms: _147  and  _150
REMARK   64  A    between atoms: _150  and  _151
REMARK   65  A    between atoms: _156  and  _158
REMARK   66  A    between atoms: _158  and  _159
REMARK   67  A    between atoms: _158  and  _161
REMARK   68  A    between atoms: _161  and  _162
REMARK   69  A    between atoms: _162  and  _163
REMARK   70  A    between atoms: _166  and  _168
REMARK   71  A    between atoms: _168  and  _169
REMARK   72  A    between atoms: _168  and  _171
REMARK   73  A    between atoms: _171  and  _172
REMARK   74  A    between atoms: _172  and  _173
REMARK   75  A    between atoms: _176  and  _178
REMARK   76  A    between atoms: _178  and  _179
REMARK   77  A    between atoms: _178  and  _181
REMARK   78  A    between atoms: _181  and  _182
REMARK   79  A    between atoms: _182  and  _183
REMARK   80  A    between atoms: _185  and  _187
REMARK   81  A    between atoms: _187  and  _188
REMARK   82  A    between atoms: _190  and  _192
REMARK   83  A    between atoms: _192  and  _193
REMARK   84  A    between atoms: _192  and  _195
REMARK   85  A    between atoms: _195  and  _196
REMARK   86  A    between atoms: _196  and  _197
REMARK   87  A    between atoms: _197  and  _198
REMARK   88  A    between atoms: _207  and  _209
REMARK   89  A    between atoms: _209  and  _210
REMARK   90  A    between atoms: _209  and  _212
REMARK   91  A    between atoms: _212  and  _213
REMARK   92  A    between atoms: _218  and  _219
REMARK   93  A    between atoms: _221  and  _223
REMARK   94  A    between atoms: _223  and  _224
REMARK   95  A    between atoms: _223  and  _226
REMARK   96  A    between atoms: _226  and  _227
REMARK   97  A    between atoms: _232  and  _234
REMARK   98  A    between atoms: _234  and  _235
REMARK   99  A    between atoms: _234  and  _237
REMARK  100  A    between atoms: _237  and  _238
REMARK  101  A    between atoms: _244  and  _245
REMARK  102  A    between atoms: _250  and  _252
REMARK  103  A    between atoms: _252  and  _253
REMARK  104  A    between atoms: _252  and  _255
REMARK  105  A    between atoms: _255  and  _256
REMARK  106  A    between atoms: _256  and  _257
REMARK  107  A    between atoms: _260  and  _262
REMARK  108  A    between atoms: _262  and  _263
REMARK  109  A    between atoms: _262  and  _265
REMARK  110  A    between atoms: _265  and  _266
REMARK  111  A    between atoms: _272  and  _274
REMARK  112  A    between atoms: _274  and  _275
REMARK  113  A    between atoms: _274  and  _277
REMARK  114  A    between atoms: _277  and  _278
REMARK  115  A    between atoms: _281  and  _283
REMARK  116  A    between atoms: _283  and  _284
REMARK  117  A    between atoms: _283  and  _286
REMARK  118  A    between atoms: _286  and  _287
REMARK  119  A    between atoms: _287  and  _288
REMARK  120  A    between atoms: _290  and  _292
REMARK  121  A    between atoms: _292  and  _293
REMARK  122  A    between atoms: _292  and  _295
REMARK  123  A    between atoms: _295  and  _296
REMARK  124  A    between atoms: _299  and  _301
REMARK  125  A    between atoms: _301  and  _302
REMARK  126  A    between atoms: _301  and  _304
REMARK  127  A    between atoms: _304  and  _305
REMARK  128  A    between atoms: _305  and  _306
REMARK  129  A    between atoms: _309  and  _311
REMARK  130  A    between atoms: _311  and  _312
REMARK  131  A    between atoms: _311  and  _314
REMARK  132  A    between atoms: _314  and  _315
REMARK  133  A    between atoms: _325  and  _327
REMARK  134  A    between atoms: _327  and  _328
REMARK  135  A    between atoms: _327  and  _330
REMARK  136  A    between atoms: _330  and  _331
REMARK  137  A    between atoms: _336  and  _337
REMARK  138  A    between atoms: _339  and  _341
REMARK  139  A    between atoms: _341  and  _342
REMARK  140  A    between atoms: _341  and  _344
REMARK  141  A    between atoms: _344  and  _345
REMARK  142  A    between atoms: _348  and  _350
REMARK  143  A    between atoms: _350  and  _351
REMARK  144  A    between atoms: _350  and  _353
REMARK  145  A    between atoms: _353  and  _354
REMARK  146  A    between atoms: _356  and  _358
REMARK  147  A    between atoms: _358  and  _359
REMARK  148  A    between atoms: _358  and  _361
REMARK  149  A    between atoms: _361  and  _362
REMARK  150  A    between atoms: _365  and  _367
REMARK  151  A    between atoms: _367  and  _368
REMARK  152  A    between atoms: _371  and  _373
REMARK  153  A    between atoms: _373  and  _374
REMARK  154  A    between atoms: _373  and  _376
REMARK  155  A    between atoms: _376  and  _377
REMARK  156  A    between atoms: _377  and  _378
REMARK  157  A    between atoms: _381  and  _383
REMARK  158  A    between atoms: _383  and  _384
REMARK  159  A    between atoms: _383  and  _386
REMARK  160  A    between atoms: _386  and  _387
REMARK  161  A    between atoms: _387  and  _388
REMARK  162  A    between atoms: _388  and  _389
REMARK  163  A    between atoms: _398  and  _400
REMARK  164  A    between atoms: _400  and  _401
REMARK  165  A    between atoms: _400  and  _403
REMARK  166  A    between atoms: _403  and  _404
REMARK  167  A    between atoms: _410  and  _412
REMARK  168  A    between atoms: _412  and  _413
REMARK  169  A    between atoms: _412  and  _415
REMARK  170  A    between atoms: _415  and  _416
REMARK  171  A    between atoms: _416  and  _417
REMARK  172  A    between atoms: _420  and  _422
REMARK  173  A    between atoms: _422  and  _423
REMARK  174  A    between atoms: _422  and  _425
REMARK  175  A    between atoms: _428  and  _430
REMARK  176  A    between atoms: _430  and  _431
REMARK  177  A    between atoms: _430  and  _433
REMARK  178  A    between atoms: _433  and  _434
REMARK  179  A    between atoms: _439  and  _440
REMARK  180  A    between atoms: _442  and  _444
REMARK  181  A    between atoms: _444  and  _445
REMARK  182  A    between atoms: _444  and  _447
REMARK  183  A    between atoms: _447  and  _448
REMARK  184  A    between atoms: _451  and  _453
REMARK  185  A    between atoms: _453  and  _454
REMARK  186  A    between atoms: _453  and  _456
REMARK  187  A    between atoms: _456  and  _457
REMARK  188  A    between atoms: _457  and  _458
REMARK  189  A    between atoms: _461  and  _463
REMARK  190  A    between atoms: _463  and  _464
REMARK  191  A    between atoms: _463  and  _466
REMARK  192  A    between atoms: _466  and  _467
REMARK  193  A    between atoms: _470  and  _472
REMARK  194  A    between atoms: _472  and  _473
REMARK  195  A    between atoms: _476  and  _478
REMARK  196  A    between atoms: _478  and  _479
REMARK  197  A    between atoms: _478  and  _481
REMARK  198  A    between atoms: _481  and  _482
REMARK  199  A    between atoms: _487  and  _489
REMARK  200  A    between atoms: _489  and  _490
REMARK  201  A    between atoms: _492  and  _494
REMARK  202  A    between atoms: _494  and  _495
REMARK  203  A    between atoms: _494  and  _497
REMARK  204  A    between atoms: _497  and  _498
REMARK  205  A    between atoms: _504  and  _506
REMARK  206  A    between atoms: _506  and  _507
REMARK  207  A    between atoms: _506  and  _509
REMARK  208  A    between atoms: _509  and  _510
REMARK  209  A    between atoms: _515  and  _517
REMARK  210  A    between atoms: _517  and  _518
REMARK  211  A    between atoms: _517  and  _520
REMARK  212  A    between atoms: _520  and  _521
REMARK  213  A    between atoms: _521  and  _522
REMARK  214  A    between atoms: _525  and  _527
REMARK  215  A    between atoms: _527  and  _528
REMARK  216  A    between atoms: _527  and  _530
REMARK  217  A    between atoms: _530  and  _531
REMARK  218  A    between atoms: _534  and  _536
REMARK  219  A    between atoms: _536  and  _537
REMARK  220  A    between atoms: _536  and  _539
REMARK  221  A    between atoms: _541  and  _543
REMARK  222  A    between atoms: _543  and  _544
REMARK  223  A    between atoms: _543  and  _546
REMARK  224  A    between atoms: _546  and  _547
REMARK  225  A    between atoms: _549  and  _551
REMARK  226  A    between atoms: _551  and  _552
REMARK  227  A    between atoms: _554  and  _556
REMARK  228  A    between atoms: _556  and  _557
REMARK  229  A    between atoms: _556  and  _559
REMARK  230  A    between atoms: _562  and  _564
REMARK  231  A    between atoms: _564  and  _565
REMARK  232  A    between atoms: _568  and  _570
REMARK  233  A    between atoms: _570  and  _571
REMARK  234  A    between atoms: _570  and  _573
REMARK  235  A    between atoms: _573  and  _574
REMARK  236  A    between atoms: _577  and  _579
REMARK  237  A    between atoms: _579  and  _580
REMARK  238  A    between atoms: _582  and  _584
REMARK  239  A    between atoms: _584  and  _585
REMARK  240  A    between atoms: _584  and  _587
REMARK  241  A    between atoms: _590  and  _592
REMARK  242  A    between atoms: _592  and  _593
REMARK  243  A    between atoms: _592  and  _595
REMARK  244  A    between atoms: _595  and  _596
REMARK  245  A    between atoms: _599  and  _601
REMARK  246  A    between atoms: _601  and  _602
REMARK  247  A    between atoms: _601  and  _604
REMARK  248  A    between atoms: _604  and  _605
REMARK  249  A    between atoms: _605  and  _606
REMARK  250  A    between atoms: _606  and  _607
REMARK  251  A    between atoms: _616  and  _618
REMARK  252  A    between atoms: _618  and  _619
REMARK  253  A    between atoms: _618  and  _621
REMARK  254  A    between atoms: _621  and  _622
REMARK  255  A    between atoms: _625  and  _627
REMARK  256  A    between atoms: _627  and  _628
REMARK  257  A    between atoms: _627  and  _630
REMARK  258  A    between atoms: _630  and  _631
REMARK  259  A    between atoms: _634  and  _636
REMARK  260  A    between atoms: _636  and  _637
REMARK  261  A    between atoms: _636  and  _639
REMARK  262  A    between atoms: _639  and  _640
REMARK                            x       y       z     vdW  Elec       q    Type
REMARK                         _______ _______ _______ _____ _____    ______ ____
ROOT
ATOM      1  O   HOH     1      -3.830  -5.628  -4.925  0.00  0.00    +0.000 OA
ENDROOT
TORSDOF 0
REMARK  Name = ../refined-set-2016/3a5y/3a5y_pocket.pdb
REMARK  262 active torsions:
REMARK  status: ('A' for Active; 'I' for Inactive)
REMARK    1  A    between atoms: _1  and  _3
REMARK    2  A    between atoms: _3  and  _4
REMARK    3  A    between atoms: _3  and  _6
REMARK    4  A    between atoms: _9  and  _11
REMARK    5  A    between atoms: _11  and  _12
REMARK    6  A    between atoms: _11  and  _14
REMARK    7  A    between atoms: _14  and  _15
REMARK    8  A    between atoms: _18  and  _20
REMARK    9  A    between atoms: _20  and  _21
REMARK   10  A    between atoms: _20  and  _23
REMARK   11  A    between atoms: _23  and  _24
REMARK   12  A    between atoms: _29  and  _31
REMARK   13  A    between atoms: _31  and  _32
REMARK   14  A    between atoms: _31  and  _34
REMARK   15  A    between atoms: _34  and  _35
REMARK   16  A    between atoms: _38  and  _40
REMARK   17  A    between atoms: _40  and  _41
REMARK   18  A    between atoms: _40  and  _43
REMARK   19  A    between atoms: _43  and  _44
REMARK   20  A    between atoms: _47  and  _49
REMARK   21  A    between atoms: _49  and  _50
REMARK   22  A    between atoms: _49  and  _52
REMARK   23  A    between atoms: _52  and  _53
REMARK   24  A    between atoms: _56  and  _57
REMARK   25  A    between atoms: _62  and  _64
REMARK   26  A    between atoms: _64  and  _65
REMARK   27  A    between atoms: _64  and  _67
REMARK   28  A    between atoms: _67  and  _68
REMARK   29  A    between atoms: _68  and  _69
REMARK   30  A    between atoms: _72  and  _74
REMARK   31  A    between atoms: _74  and  _75
REMARK   32  A    between atoms: _74  and  _77
REMARK   33  A    between atoms: _77  and  _78
REMARK   34  A    between atoms: _83  and  _84
REMARK   35  A    between atoms: _86  and  _88
REMARK   36  A    between atoms: _88  and  _89
REMARK   37  A    between atoms: _88  and  _91
REMARK   38  A    between atoms: _91  and  _92
REMARK   39  A    between atoms: _92  and  _93
REMARK   40  A    between atoms: _95  and  _97
REMARK   41  A    between atoms: _97  and  _98
REMARK   42  A    between atoms: _97  and  _100
REMARK   43  A    between atoms: _100  and  _101
REMARK   44  A    between atoms: _101  and  _102
REMARK   45  A    between atoms: _102  and  _103
REMARK   46  A    between atoms: _103  and  _104
REMARK   47  A    between atoms: _108  and  _110
REMARK   48  A    between atoms: _110  and  _111
REMARK   49  A    between atoms: _110  and  _113
REMARK   50  A    between atoms: _113  and  _114
REMARK   51  A    between atoms: _116  and  _118
REMARK   52  A    between atoms: _118  and  _119
REMARK   53  A    between atoms: _118  and  _121
REMARK   54  A    between atoms: _121  and  _122
REMARK   55  A    between atoms: _128  and  _130
REMARK   56  A    between atoms: _130  and  _131
REMARK   57  A    between atoms: _130  and  _133
REMARK   58  A    between atoms: _133  and  _134
REMARK   59  A    between atoms: _134  and  _135
REMARK   60  A    between atoms: _135  and  _136
REMARK   61  A    between atoms: _145  and  _147
REMARK   62  A    between atoms: _147  and  _148
REMARK   63  A    between atoms: _147  and  _150
REMARK   64  A    between atoms: _150  and  _151
REMARK   65  A    between atoms: _156  and  _158
REMARK   66  A    between atoms: _158  and  _159
REMARK   67  A    between atoms: _158  and  _161
REMARK   68  A    between atoms: _161  and  _162
REMARK   69  A    between atoms: _162  and  _163
REMARK   70  A    between atoms: _166  and  _168
REMARK   71  A    between atoms: _168  and  _169
REMARK   72  A    between atoms: _168  and  _171
REMARK   73  A    between atoms: _171  and  _172
REMARK   74  A    between atoms: _172  and  _173
REMARK   75  A    between atoms: _176  and  _178
REMARK   76  A    between atoms: _178  and  _179
REMARK   77  A    between atoms: _178  and  _181
REMARK   78  A    between atoms: _181  and  _182
REMARK   79  A    between atoms: _182  and  _183
REMARK   80  A    between atoms: _185  and  _187
REMARK   81  A    between atoms: _187  and  _188
REMARK   82  A    between atoms: _190  and  _192
REMARK   83  A    between atoms: _192  and  _193
REMARK   84  A    between atoms: _192  and  _195
REMARK   85  A    between atoms: _195  and  _196
REMARK   86  A    between atoms: _196  and  _197
REMARK   87  A    between atoms: _197  and  _198
REMARK   88  A    between atoms: _207  and  _209
REMARK   89  A    between atoms: _209  and  _210
REMARK   90  A    between atoms: _209  and  _212
REMARK   91  A    between atoms: _212  and  _213
REMARK   92  A    between atoms: _218  and  _219
REMARK   93  A    between atoms: _221  and  _223
REMARK   94  A    between atoms: _223  and  _224
REMARK   95  A    between atoms: _223  and  _226
REMARK   96  A    between atoms: _226  and  _227
REMARK   97  A    between atoms: _232  and  _234
REMARK   98  A    between atoms: _234  and  _235
REMARK   99  A    between atoms: _234  and  _237
REMARK  100  A    between atoms: _237  and  _238
REMARK  101  A    between atoms: _244  and  _245
REMARK  102  A    between atoms: _250  and  _252
REMARK  103  A    between atoms: _252  and  _253
REMARK  104  A    between atoms: _252  and  _255
REMARK  105  A    between atoms: _255  and  _256
REMARK  106  A    between atoms: _256  and  _257
REMARK  107  A    between atoms: _260  and  _262
REMARK  108  A    between atoms: _262  and  _263
REMARK  109  A    between atoms: _262  and  _265
REMARK  110  A    between atoms: _265  and  _266
REMARK  111  A    between atoms: _272  and  _274
REMARK  112  A    between atoms: _274  and  _275
REMARK  113  A    between atoms: _274  and  _277
REMARK  114  A    between atoms: _277  and  _278
REMARK  115  A    between atoms: _281  and  _283
REMARK  116  A    between atoms: _283  and  _284
REMARK  117  A    between atoms: _283  and  _286
REMARK  118  A    between atoms: _286  and  _287
REMARK  119  A    between atoms: _287  and  _288
REMARK  120  A    between atoms: _290  and  _292
REMARK  121  A    between atoms: _292  and  _293
REMARK  122  A    between atoms: _292  and  _295
REMARK  123  A    between atoms: _295  and  _296
REMARK  124  A    between atoms: _299  and  _301
REMARK  125  A    between atoms: _301  and  _302
REMARK  126  A    between atoms: _301  and  _304
REMARK  127  A    between atoms: _304  and  _305
REMARK  128  A    between atoms: _305  and  _306
REMARK  129  A    between atoms: _309  and  _311
REMARK  130  A    between atoms: _311  and  _312
REMARK  131  A    between atoms: _311  and  _314
REMARK  132  A    between atoms: _314  and  _315
REMARK  133  A    between atoms: _325  and  _327
REMARK  134  A    between atoms: _327  and  _328
REMARK  135  A    between atoms: _327  and  _330
REMARK  136  A    between atoms: _330  and  _331
REMARK  137  A    between atoms: _336  and  _337
REMARK  138  A    between atoms: _339  and  _341
REMARK  139  A    between atoms: _341  and  _342
REMARK  140  A    between atoms: _341  and  _344
REMARK  141  A    between atoms: _344  and  _345
REMARK  142  A    between atoms: _348  and  _350
REMARK  143  A    between atoms: _350  and  _351
REMARK  144  A    between atoms: _350  and  _353
REMARK  145  A    between atoms: _353  and  _354
REMARK  146  A    between atoms: _356  and  _358
REMARK  147  A    between atoms: _358  and  _359
REMARK  148  A    between atoms: _358  and  _361
REMARK  149  A    between atoms: _361  and  _362
REMARK  150  A    between atoms: _365  and  _367
REMARK  151  A    between atoms: _367  and  _368
REMARK  152  A    between atoms: _371  and  _373
REMARK  153  A    between atoms: _373  and  _374
REMARK  154  A    between atoms: _373  and  _376
REMARK  155  A    between atoms: _376  and  _377
REMARK  156  A    between atoms: _377  and  _378
REMARK  157  A    between atoms: _381  and  _383
REMARK  158  A    between atoms: _383  and  _384
REMARK  159  A    between atoms: _383  and  _386
REMARK  160  A    between atoms: _386  and  _387
REMARK  161  A    between atoms: _387  and  _388
REMARK  162  A    between atoms: _388  and  _389
REMARK  163  A    between atoms: _398  and  _400
REMARK  164  A    between atoms: _400  and  _401
REMARK  165  A    between atoms: _400  and  _403
REMARK  166  A    between atoms: _403  and  _404
REMARK  167  A    between atoms: _410  and  _412
REMARK  168  A    between atoms: _412  and  _413
REMARK  169  A    between atoms: _412  and  _415
REMARK  170  A    between atoms: _415  and  _416
REMARK  171  A    between atoms: _416  and  _417
REMARK  172  A    between atoms: _420  and  _422
REMARK  173  A    between atoms: _422  and  _423
REMARK  174  A    between atoms: _422  and  _425
REMARK  175  A    between atoms: _428  and  _430
REMARK  176  A    between atoms: _430  and  _431
REMARK  177  A    between atoms: _430  and  _433
REMARK  178  A    between atoms: _433  and  _434
REMARK  179  A    between atoms: _439  and  _440
REMARK  180  A    between atoms: _442  and  _444
REMARK  181  A    between atoms: _444  and  _445
REMARK  182  A    between atoms: _444  and  _447
REMARK  183  A    between atoms: _447  and  _448
REMARK  184  A    between atoms: _451  and  _453
REMARK  185  A    between atoms: _453  and  _454
REMARK  186  A    between atoms: _453  and  _456
REMARK  187  A    between atoms: _456  and  _457
REMARK  188  A    between atoms: _457  and  _458
REMARK  189  A    between atoms: _461  and  _463
REMARK  190  A    between atoms: _463  and  _464
REMARK  191  A    between atoms: _463  and  _466
REMARK  192  A    between atoms: _466  and  _467
REMARK  193  A    between atoms: _470  and  _472
REMARK  194  A    between atoms: _472  and  _473
REMARK  195  A    between atoms: _476  and  _478
REMARK  196  A    between atoms: _478  and  _479
REMARK  197  A    between atoms: _478  and  _481
REMARK  198  A    between atoms: _481  and  _482
REMARK  199  A    between atoms: _487  and  _489
REMARK  200  A    between atoms: _489  and  _490
REMARK  201  A    between atoms: _492  and  _494
REMARK  202  A    between atoms: _494  and  _495
REMARK  203  A    between atoms: _494  and  _497
REMARK  204  A    between atoms: _497  and  _498
REMARK  205  A    between atoms: _504  and  _506
REMARK  206  A    between atoms: _506  and  _507
REMARK  207  A    between atoms: _506  and  _509
REMARK  208  A    between atoms: _509  and  _510
REMARK  209  A    between atoms: _515  and  _517
REMARK  210  A    between atoms: _517  and  _518
REMARK  211  A    between atoms: _517  and  _520
REMARK  212  A    between atoms: _520  and  _521
REMARK  213  A    between atoms: _521  and  _522
REMARK  214  A    between atoms: _525  and  _527
REMARK  215  A    between atoms: _527  and  _528
REMARK  216  A    between atoms: _527  and  _530
REMARK  217  A    between atoms: _530  and  _531
REMARK  218  A    between atoms: _534  and  _536
REMARK  219  A    between atoms: _536  and  _537
REMARK  220  A    between atoms: _536  and  _539
REMARK  221  A    between atoms: _541  and  _543
REMARK  222  A    between atoms: _543  and  _544
REMARK  223  A    between atoms: _543  and  _546
REMARK  224  A    between atoms: _546  and  _547
REMARK  225  A    between atoms: _549  and  _551
REMARK  226  A    between atoms: _551  and  _552
REMARK  227  A    between atoms: _554  and  _556
REMARK  228  A    between atoms: _556  and  _557
REMARK  229  A    between atoms: _556  and  _559
REMARK  230  A    between atoms: _562  and  _564
REMARK  231  A    between atoms: _564  and  _565
REMARK  232  A    between atoms: _568  and  _570
REMARK  233  A    between atoms: _570  and  _571
REMARK  234  A    between atoms: _570  and  _573
REMARK  235  A    between atoms: _573  and  _574
REMARK  236  A    between atoms: _577  and  _579
REMARK  237  A    between atoms: _579  and  _580
REMARK  238  A    between atoms: _582  and  _584
REMARK  239  A    between atoms: _584  and  _585
REMARK  240  A    between atoms: _584  and  _587
REMARK  241  A    between atoms: _590  and  _592
REMARK  242  A    between atoms: _592  and  _593
REMARK  243  A    between atoms: _592  and  _595
REMARK  244  A    between atoms: _595  and  _596
REMARK  245  A    between atoms: _599  and  _601
REMARK  246  A    between atoms: _601  and  _602
REMARK  247  A    between atoms: _601  and  _604
REMARK  248  A    between atoms: _604  and  _605
REMARK  249  A    between atoms: _605  and  _606
REMARK  250  A    between atoms: _606  and  _607
REMARK  251  A    between atoms: _616  and  _618
REMARK  252  A    between atoms: _618  and  _619
REMARK  253  A    between atoms: _618  and  _621
REMARK  254  A    between atoms: _621  and  _622
REMARK  255  A    between atoms: _625  and  _627
REMARK  256  A    between atoms: _627  and  _628
REMARK  257  A    between atoms: _627  and  _630
REMARK  258  A    between atoms: _630  and  _631
REMARK  259  A    between atoms: _634  and  _636
REMARK  260  A    between atoms: _636  and  _637
REMARK  261  A    between atoms: _636  and  _639
REMARK  262  A    between atoms: _639  and  _640
REMARK                            x       y       z     vdW  Elec       q    Type
REMARK                         _______ _______ _______ _____ _____    ______ ____
ROOT
ATOM      1  O   HOH     1      -4.954  -7.064  -2.942  0.00  0.00    +0.000 OA
ENDROOT
TORSDOF 0
REMARK  Name = ../refined-set-2016/3a5y/3a5y_pocket.pdb
REMARK  262 active torsions:
REMARK  status: ('A' for Active; 'I' for Inactive)
REMARK    1  A    between atoms: _1  and  _3
REMARK    2  A    between atoms: _3  and  _4
REMARK    3  A    between atoms: _3  and  _6
REMARK    4  A    between atoms: _9  and  _11
REMARK    5  A    between atoms: _11  and  _12
REMARK    6  A    between atoms: _11  and  _14
REMARK    7  A    between atoms: _14  and  _15
REMARK    8  A    between atoms: _18  and  _20
REMARK    9  A    between atoms: _20  and  _21
REMARK   10  A    between atoms: _20  and  _23
REMARK   11  A    between atoms: _23  and  _24
REMARK   12  A    between atoms: _29  and  _31
REMARK   13  A    between atoms: _31  and  _32
REMARK   14  A    between atoms: _31  and  _34
REMARK   15  A    between atoms: _34  and  _35
REMARK   16  A    between atoms: _38  and  _40
REMARK   17  A    between atoms: _40  and  _41
REMARK   18  A    between atoms: _40  and  _43
REMARK   19  A    between atoms: _43  and  _44
REMARK   20  A    between atoms: _47  and  _49
REMARK   21  A    between atoms: _49  and  _50
REMARK   22  A    between atoms: _49  and  _52
REMARK   23  A    between atoms: _52  and  _53
REMARK   24  A    between atoms: _56  and  _57
REMARK   25  A    between atoms: _62  and  _64
REMARK   26  A    between atoms: _64  and  _65
REMARK   27  A    between atoms: _64  and  _67
REMARK   28  A    between atoms: _67  and  _68
REMARK   29  A    between atoms: _68  and  _69
REMARK   30  A    between atoms: _72  and  _74
REMARK   31  A    between atoms: _74  and  _75
REMARK   32  A    between atoms: _74  and  _77
REMARK   33  A    between atoms: _77  and  _78
REMARK   34  A    between atoms: _83  and  _84
REMARK   35  A    between atoms: _86  and  _88
REMARK   36  A    between atoms: _88  and  _89
REMARK   37  A    between atoms: _88  and  _91
REMARK   38  A    between atoms: _91  and  _92
REMARK   39  A    between atoms: _92  and  _93
REMARK   40  A    between atoms: _95  and  _97
REMARK   41  A    between atoms: _97  and  _98
REMARK   42  A    between atoms: _97  and  _100
REMARK   43  A    between atoms: _100  and  _101
REMARK   44  A    between atoms: _101  and  _102
REMARK   45  A    between atoms: _102  and  _103
REMARK   46  A    between atoms: _103  and  _104
REMARK   47  A    between atoms: _108  and  _110
REMARK   48  A    between atoms: _110  and  _111
REMARK   49  A    between atoms: _110  and  _113
REMARK   50  A    between atoms: _113  and  _114
REMARK   51  A    between atoms: _116  and  _118
REMARK   52  A    between atoms: _118  and  _119
REMARK   53  A    between atoms: _118  and  _121
REMARK   54  A    between atoms: _121  and  _122
REMARK   55  A    between atoms: _128  and  _130
REMARK   56  A    between atoms: _130  and  _131
REMARK   57  A    between atoms: _130  and  _133
REMARK   58  A    between atoms: _133  and  _134
REMARK   59  A    between atoms: _134  and  _135
REMARK   60  A    between atoms: _135  and  _136
REMARK   61  A    between atoms: _145  and  _147
REMARK   62  A    between atoms: _147  and  _148
REMARK   63  A    between atoms: _147  and  _150
REMARK   64  A    between atoms: _150  and  _151
REMARK   65  A    between atoms: _156  and  _158
REMARK   66  A    between atoms: _158  and  _159
REMARK   67  A    between atoms: _158  and  _161
REMARK   68  A    between atoms: _161  and  _162
REMARK   69  A    between atoms: _162  and  _163
REMARK   70  A    between atoms: _166  and  _168
REMARK   71  A    between atoms: _168  and  _169
REMARK   72  A    between atoms: _168  and  _171
REMARK   73  A    between atoms: _171  and  _172
REMARK   74  A    between atoms: _172  and  _173
REMARK   75  A    between atoms: _176  and  _178
REMARK   76  A    between atoms: _178  and  _179
REMARK   77  A    between atoms: _178  and  _181
REMARK   78  A    between atoms: _181  and  _182
REMARK   79  A    between atoms: _182  and  _183
REMARK   80  A    between atoms: _185  and  _187
REMARK   81  A    between atoms: _187  and  _188
REMARK   82  A    between atoms: _190  and  _192
REMARK   83  A    between atoms: _192  and  _193
REMARK   84  A    between atoms: _192  and  _195
REMARK   85  A    between atoms: _195  and  _196
REMARK   86  A    between atoms: _196  and  _197
REMARK   87  A    between atoms: _197  and  _198
REMARK   88  A    between atoms: _207  and  _209
REMARK   89  A    between atoms: _209  and  _210
REMARK   90  A    between atoms: _209  and  _212
REMARK   91  A    between atoms: _212  and  _213
REMARK   92  A    between atoms: _218  and  _219
REMARK   93  A    between atoms: _221  and  _223
REMARK   94  A    between atoms: _223  and  _224
REMARK   95  A    between atoms: _223  and  _226
REMARK   96  A    between atoms: _226  and  _227
REMARK   97  A    between atoms: _232  and  _234
REMARK   98  A    between atoms: _234  and  _235
REMARK   99  A    between atoms: _234  and  _237
REMARK  100  A    between atoms: _237  and  _238
REMARK  101  A    between atoms: _244  and  _245
REMARK  102  A    between atoms: _250  and  _252
REMARK  103  A    between atoms: _252  and  _253
REMARK  104  A    between atoms: _252  and  _255
REMARK  105  A    between atoms: _255  and  _256
REMARK  106  A    between atoms: _256  and  _257
REMARK  107  A    between atoms: _260  and  _262
REMARK  108  A    between atoms: _262  and  _263
REMARK  109  A    between atoms: _262  and  _265
REMARK  110  A    between atoms: _265  and  _266
REMARK  111  A    between atoms: _272  and  _274
REMARK  112  A    between atoms: _274  and  _275
REMARK  113  A    between atoms: _274  and  _277
REMARK  114  A    between atoms: _277  and  _278
REMARK  115  A    between atoms: _281  and  _283
REMARK  116  A    between atoms: _283  and  _284
REMARK  117  A    between atoms: _283  and  _286
REMARK  118  A    between atoms: _286  and  _287
REMARK  119  A    between atoms: _287  and  _288
REMARK  120  A    between atoms: _290  and  _292
REMARK  121  A    between atoms: _292  and  _293
REMARK  122  A    between atoms: _292  and  _295
REMARK  123  A    between atoms: _295  and  _296
REMARK  124  A    between atoms: _299  and  _301
REMARK  125  A    between atoms: _301  and  _302
REMARK  126  A    between atoms: _301  and  _304
REMARK  127  A    between atoms: _304  and  _305
REMARK  128  A    between atoms: _305  and  _306
REMARK  129  A    between atoms: _309  and  _311
REMARK  130  A    between atoms: _311  and  _312
REMARK  131  A    between atoms: _311  and  _314
REMARK  132  A    between atoms: _314  and  _315
REMARK  133  A    between atoms: _325  and  _327
REMARK  134  A    between atoms: _327  and  _328
REMARK  135  A    between atoms: _327  and  _330
REMARK  136  A    between atoms: _330  and  _331
REMARK  137  A    between atoms: _336  and  _337
REMARK  138  A    between atoms: _339  and  _341
REMARK  139  A    between atoms: _341  and  _342
REMARK  140  A    between atoms: _341  and  _344
REMARK  141  A    between atoms: _344  and  _345
REMARK  142  A    between atoms: _348  and  _350
REMARK  143  A    between atoms: _350  and  _351
REMARK  144  A    between atoms: _350  and  _353
REMARK  145  A    between atoms: _353  and  _354
REMARK  146  A    between atoms: _356  and  _358
REMARK  147  A    between atoms: _358  and  _359
REMARK  148  A    between atoms: _358  and  _361
REMARK  149  A    between atoms: _361  and  _362
REMARK  150  A    between atoms: _365  and  _367
REMARK  151  A    between atoms: _367  and  _368
REMARK  152  A    between atoms: _371  and  _373
REMARK  153  A    between atoms: _373  and  _374
REMARK  154  A    between atoms: _373  and  _376
REMARK  155  A    between atoms: _376  and  _377
REMARK  156  A    between atoms: _377  and  _378
REMARK  157  A    between atoms: _381  and  _383
REMARK  158  A    between atoms: _383  and  _384
REMARK  159  A    between atoms: _383  and  _386
REMARK  160  A    between atoms: _386  and  _387
REMARK  161  A    between atoms: _387  and  _388
REMARK  162  A    between atoms: _388  and  _389
REMARK  163  A    between atoms: _398  and  _400
REMARK  164  A    between atoms: _400  and  _401
REMARK  165  A    between atoms: _400  and  _403
REMARK  166  A    between atoms: _403  and  _404
REMARK  167  A    between atoms: _410  and  _412
REMARK  168  A    between atoms: _412  and  _413
REMARK  169  A    between atoms: _412  and  _415
REMARK  170  A    between atoms: _415  and  _416
REMARK  171  A    between atoms: _416  and  _417
REMARK  172  A    between atoms: _420  and  _422
REMARK  173  A    between atoms: _422  and  _423
REMARK  174  A    between atoms: _422  and  _425
REMARK  175  A    between atoms: _428  and  _430
REMARK  176  A    between atoms: _430  and  _431
REMARK  177  A    between atoms: _430  and  _433
REMARK  178  A    between atoms: _433  and  _434
REMARK  179  A    between atoms: _439  and  _440
REMARK  180  A    between atoms: _442  and  _444
REMARK  181  A    between atoms: _444  and  _445
REMARK  182  A    between atoms: _444  and  _447
REMARK  183  A    between atoms: _447  and  _448
REMARK  184  A    between atoms: _451  and  _453
REMARK  185  A    between atoms: _453  and  _454
REMARK  186  A    between atoms: _453  and  _456
REMARK  187  A    between atoms: _456  and  _457
REMARK  188  A    between atoms: _457  and  _458
REMARK  189  A    between atoms: _461  and  _463
REMARK  190  A    between atoms: _463  and  _464
REMARK  191  A    between atoms: _463  and  _466
REMARK  192  A    between atoms: _466  and  _467
REMARK  193  A    between atoms: _470  and  _472
REMARK  194  A    between atoms: _472  and  _473
REMARK  195  A    between atoms: _476  and  _478
REMARK  196  A    between atoms: _478  and  _479
REMARK  197  A    between atoms: _478  and  _481
REMARK  198  A    between atoms: _481  and  _482
REMARK  199  A    between atoms: _487  and  _489
REMARK  200  A    between atoms: _489  and  _490
REMARK  201  A    between atoms: _492  and  _494
REMARK  202  A    between atoms: _494  and  _495
REMARK  203  A    between atoms: _494  and  _497
REMARK  204  A    between atoms: _497  and  _498
REMARK  205  A    between atoms: _504  and  _506
REMARK  206  A    between atoms: _506  and  _507
REMARK  207  A    between atoms: _506  and  _509
REMARK  208  A    between atoms: _509  and  _510
REMARK  209  A    between atoms: _515  and  _517
REMARK  210  A    between atoms: _517  and  _518
REMARK  211  A    between atoms: _517  and  _520
REMARK  212  A    between atoms: _520  and  _521
REMARK  213  A    between atoms: _521  and  _522
REMARK  214  A    between atoms: _525  and  _527
REMARK  215  A    between atoms: _527  and  _528
REMARK  216  A    between atoms: _527  and  _530
REMARK  217  A    between atoms: _530  and  _531
REMARK  218  A    between atoms: _534  and  _536
REMARK  219  A    between atoms: _536  and  _537
REMARK  220  A    between atoms: _536  and  _539
REMARK  221  A    between atoms: _541  and  _543
REMARK  222  A    between atoms: _543  and  _544
REMARK  223  A    between atoms: _543  and  _546
REMARK  224  A    between atoms: _546  and  _547
REMARK  225  A    between atoms: _549  and  _551
REMARK  226  A    between atoms: _551  and  _552
REMARK  227  A    between atoms: _554  and  _556
REMARK  228  A    between atoms: _556  and  _557
REMARK  229  A    between atoms: _556  and  _559
REMARK  230  A    between atoms: _562  and  _564
REMARK  231  A    between atoms: _564  and  _565
REMARK  232  A    between atoms: _568  and  _570
REMARK  233  A    between atoms: _570  and  _571
REMARK  234  A    between atoms: _570  and  _573
REMARK  235  A    between atoms: _573  and  _574
REMARK  236  A    between atoms: _577  and  _579
REMARK  237  A    between atoms: _579  and  _580
REMARK  238  A    between atoms: _582  and  _584
REMARK  239  A    between atoms: _584  and  _585
REMARK  240  A    between atoms: _584  and  _587
REMARK  241  A    between atoms: _590  and  _592
REMARK  242  A    between atoms: _592  and  _593
REMARK  243  A    between atoms: _592  and  _595
REMARK  244  A    between atoms: _595  and  _596
REMARK  245  A    between atoms: _599  and  _601
REMARK  246  A    between atoms: _601  and  _602
REMARK  247  A    between atoms: _601  and  _604
REMARK  248  A    between atoms: _604  and  _605
REMARK  249  A    between atoms: _605  and  _606
REMARK  250  A    between atoms: _606  and  _607
REMARK  251  A    between atoms: _616  and  _618
REMARK  252  A    between atoms: _618  and  _619
REMARK  253  A    between atoms: _618  and  _621
REMARK  254  A    between atoms: _621  and  _622
REMARK  255  A    between atoms: _625  and  _627
REMARK  256  A    between atoms: _627  and  _628
REMARK  257  A    between atoms: _627  and  _630
REMARK  258  A    between atoms: _630  and  _631
REMARK  259  A    between atoms: _634  and  _636
REMARK  260  A    between atoms: _636  and  _637
REMARK  261  A    between atoms: _636  and  _639
REMARK  262  A    between atoms: _639  and  _640
REMARK                            x       y       z     vdW  Elec       q    Type
REMARK                         _______ _______ _______ _____ _____    ______ ____
ROOT
ATOM      1  O   HOH     1       4.115  -0.869 -15.237  0.00  0.00    +0.000 OA
ENDROOT
TORSDOF 0
REMARK  Name = ../refined-set-2016/3a5y/3a5y_pocket.pdb
REMARK  262 active torsions:
REMARK  status: ('A' for Active; 'I' for Inactive)
REMARK    1  A    between atoms: _1  and  _3
REMARK    2  A    between atoms: _3  and  _4
REMARK    3  A    between atoms: _3  and  _6
REMARK    4  A    between atoms: _9  and  _11
REMARK    5  A    between atoms: _11  and  _12
REMARK    6  A    between atoms: _11  and  _14
REMARK    7  A    between atoms: _14  and  _15
REMARK    8  A    between atoms: _18  and  _20
REMARK    9  A    between atoms: _20  and  _21
REMARK   10  A    between atoms: _20  and  _23
REMARK   11  A    between atoms: _23  and  _24
REMARK   12  A    between atoms: _29  and  _31
REMARK   13  A    between atoms: _31  and  _32
REMARK   14  A    between atoms: _31  and  _34
REMARK   15  A    between atoms: _34  and  _35
REMARK   16  A    between atoms: _38  and  _40
REMARK   17  A    between atoms: _40  and  _41
REMARK   18  A    between atoms: _40  and  _43
REMARK   19  A    between atoms: _43  and  _44
REMARK   20  A    between atoms: _47  and  _49
REMARK   21  A    between atoms: _49  and  _50
REMARK   22  A    between atoms: _49  and  _52
REMARK   23  A    between atoms: _52  and  _53
REMARK   24  A    between atoms: _56  and  _57
REMARK   25  A    between atoms: _62  and  _64
REMARK   26  A    between atoms: _64  and  _65
REMARK   27  A    between atoms: _64  and  _67
REMARK   28  A    between atoms: _67  and  _68
REMARK   29  A    between atoms: _68  and  _69
REMARK   30  A    between atoms: _72  and  _74
REMARK   31  A    between atoms: _74  and  _75
REMARK   32  A    between atoms: _74  and  _77
REMARK   33  A    between atoms: _77  and  _78
REMARK   34  A    between atoms: _83  and  _84
REMARK   35  A    between atoms: _86  and  _88
REMARK   36  A    between atoms: _88  and  _89
REMARK   37  A    between atoms: _88  and  _91
REMARK   38  A    between atoms: _91  and  _92
REMARK   39  A    between atoms: _92  and  _93
REMARK   40  A    between atoms: _95  and  _97
REMARK   41  A    between atoms: _97  and  _98
REMARK   42  A    between atoms: _97  and  _100
REMARK   43  A    between atoms: _100  and  _101
REMARK   44  A    between atoms: _101  and  _102
REMARK   45  A    between atoms: _102  and  _103
REMARK   46  A    between atoms: _103  and  _104
REMARK   47  A    between atoms: _108  and  _110
REMARK   48  A    between atoms: _110  and  _111
REMARK   49  A    between atoms: _110  and  _113
REMARK   50  A    between atoms: _113  and  _114
REMARK   51  A    between atoms: _116  and  _118
REMARK   52  A    between atoms: _118  and  _119
REMARK   53  A    between atoms: _118  and  _121
REMARK   54  A    between atoms: _121  and  _122
REMARK   55  A    between atoms: _128  and  _130
REMARK   56  A    between atoms: _130  and  _131
REMARK   57  A    between atoms: _130  and  _133
REMARK   58  A    between atoms: _133  and  _134
REMARK   59  A    between atoms: _134  and  _135
REMARK   60  A    between atoms: _135  and  _136
REMARK   61  A    between atoms: _145  and  _147
REMARK   62  A    between atoms: _147  and  _148
REMARK   63  A    between atoms: _147  and  _150
REMARK   64  A    between atoms: _150  and  _151
REMARK   65  A    between atoms: _156  and  _158
REMARK   66  A    between atoms: _158  and  _159
REMARK   67  A    between atoms: _158  and  _161
REMARK   68  A    between atoms: _161  and  _162
REMARK   69  A    between atoms: _162  and  _163
REMARK   70  A    between atoms: _166  and  _168
REMARK   71  A    between atoms: _168  and  _169
REMARK   72  A    between atoms: _168  and  _171
REMARK   73  A    between atoms: _171  and  _172
REMARK   74  A    between atoms: _172  and  _173
REMARK   75  A    between atoms: _176  and  _178
REMARK   76  A    between atoms: _178  and  _179
REMARK   77  A    between atoms: _178  and  _181
REMARK   78  A    between atoms: _181  and  _182
REMARK   79  A    between atoms: _182  and  _183
REMARK   80  A    between atoms: _185  and  _187
REMARK   81  A    between atoms: _187  and  _188
REMARK   82  A    between atoms: _190  and  _192
REMARK   83  A    between atoms: _192  and  _193
REMARK   84  A    between atoms: _192  and  _195
REMARK   85  A    between atoms: _195  and  _196
REMARK   86  A    between atoms: _196  and  _197
REMARK   87  A    between atoms: _197  and  _198
REMARK   88  A    between atoms: _207  and  _209
REMARK   89  A    between atoms: _209  and  _210
REMARK   90  A    between atoms: _209  and  _212
REMARK   91  A    between atoms: _212  and  _213
REMARK   92  A    between atoms: _218  and  _219
REMARK   93  A    between atoms: _221  and  _223
REMARK   94  A    between atoms: _223  and  _224
REMARK   95  A    between atoms: _223  and  _226
REMARK   96  A    between atoms: _226  and  _227
REMARK   97  A    between atoms: _232  and  _234
REMARK   98  A    between atoms: _234  and  _235
REMARK   99  A    between atoms: _234  and  _237
REMARK  100  A    between atoms: _237  and  _238
REMARK  101  A    between atoms: _244  and  _245
REMARK  102  A    between atoms: _250  and  _252
REMARK  103  A    between atoms: _252  and  _253
REMARK  104  A    between atoms: _252  and  _255
REMARK  105  A    between atoms: _255  and  _256
REMARK  106  A    between atoms: _256  and  _257
REMARK  107  A    between atoms: _260  and  _262
REMARK  108  A    between atoms: _262  and  _263
REMARK  109  A    between atoms: _262  and  _265
REMARK  110  A    between atoms: _265  and  _266
REMARK  111  A    between atoms: _272  and  _274
REMARK  112  A    between atoms: _274  and  _275
REMARK  113  A    between atoms: _274  and  _277
REMARK  114  A    between atoms: _277  and  _278
REMARK  115  A    between atoms: _281  and  _283
REMARK  116  A    between atoms: _283  and  _284
REMARK  117  A    between atoms: _283  and  _286
REMARK  118  A    between atoms: _286  and  _287
REMARK  119  A    between atoms: _287  and  _288
REMARK  120  A    between atoms: _290  and  _292
REMARK  121  A    between atoms: _292  and  _293
REMARK  122  A    between atoms: _292  and  _295
REMARK  123  A    between atoms: _295  and  _296
REMARK  124  A    between atoms: _299  and  _301
REMARK  125  A    between atoms: _301  and  _302
REMARK  126  A    between atoms: _301  and  _304
REMARK  127  A    between atoms: _304  and  _305
REMARK  128  A    between atoms: _305  and  _306
REMARK  129  A    between atoms: _309  and  _311
REMARK  130  A    between atoms: _311  and  _312
REMARK  131  A    between atoms: _311  and  _314
REMARK  132  A    between atoms: _314  and  _315
REMARK  133  A    between atoms: _325  and  _327
REMARK  134  A    between atoms: _327  and  _328
REMARK  135  A    between atoms: _327  and  _330
REMARK  136  A    between atoms: _330  and  _331
REMARK  137  A    between atoms: _336  and  _337
REMARK  138  A    between atoms: _339  and  _341
REMARK  139  A    between atoms: _341  and  _342
REMARK  140  A    between atoms: _341  and  _344
REMARK  141  A    between atoms: _344  and  _345
REMARK  142  A    between atoms: _348  and  _350
REMARK  143  A    between atoms: _350  and  _351
REMARK  144  A    between atoms: _350  and  _353
REMARK  145  A    between atoms: _353  and  _354
REMARK  146  A    between atoms: _356  and  _358
REMARK  147  A    between atoms: _358  and  _359
REMARK  148  A    between atoms: _358  and  _361
REMARK  149  A    between atoms: _361  and  _362
REMARK  150  A    between atoms: _365  and  _367
REMARK  151  A    between atoms: _367  and  _368
REMARK  152  A    between atoms: _371  and  _373
REMARK  153  A    between atoms: _373  and  _374
REMARK  154  A    between atoms: _373  and  _376
REMARK  155  A    between atoms: _376  and  _377
REMARK  156  A    between atoms: _377  and  _378
REMARK  157  A    between atoms: _381  and  _383
REMARK  158  A    between atoms: _383  and  _384
REMARK  159  A    between atoms: _383  and  _386
REMARK  160  A    between atoms: _386  and  _387
REMARK  161  A    between atoms: _387  and  _388
REMARK  162  A    between atoms: _388  and  _389
REMARK  163  A    between atoms: _398  and  _400
REMARK  164  A    between atoms: _400  and  _401
REMARK  165  A    between atoms: _400  and  _403
REMARK  166  A    between atoms: _403  and  _404
REMARK  167  A    between atoms: _410  and  _412
REMARK  168  A    between atoms: _412  and  _413
REMARK  169  A    between atoms: _412  and  _415
REMARK  170  A    between atoms: _415  and  _416
REMARK  171  A    between atoms: _416  and  _417
REMARK  172  A    between atoms: _420  and  _422
REMARK  173  A    between atoms: _422  and  _423
REMARK  174  A    between atoms: _422  and  _425
REMARK  175  A    between atoms: _428  and  _430
REMARK  176  A    between atoms: _430  and  _431
REMARK  177  A    between atoms: _430  and  _433
REMARK  178  A    between atoms: _433  and  _434
REMARK  179  A    between atoms: _439  and  _440
REMARK  180  A    between atoms: _442  and  _444
REMARK  181  A    between atoms: _444  and  _445
REMARK  182  A    between atoms: _444  and  _447
REMARK  183  A    between atoms: _447  and  _448
REMARK  184  A    between atoms: _451  and  _453
REMARK  185  A    between atoms: _453  and  _454
REMARK  186  A    between atoms: _453  and  _456
REMARK  187  A    between atoms: _456  and  _457
REMARK  188  A    between atoms: _457  and  _458
REMARK  189  A    between atoms: _461  and  _463
REMARK  190  A    between atoms: _463  and  _464
REMARK  191  A    between atoms: _463  and  _466
REMARK  192  A    between atoms: _466  and  _467
REMARK  193  A    between atoms: _470  and  _472
REMARK  194  A    between atoms: _472  and  _473
REMARK  195  A    between atoms: _476  and  _478
REMARK  196  A    between atoms: _478  and  _479
REMARK  197  A    between atoms: _478  and  _481
REMARK  198  A    between atoms: _481  and  _482
REMARK  199  A    between atoms: _487  and  _489
REMARK  200  A    between atoms: _489  and  _490
REMARK  201  A    between atoms: _492  and  _494
REMARK  202  A    between atoms: _494  and  _495
REMARK  203  A    between atoms: _494  and  _497
REMARK  204  A    between atoms: _497  and  _498
REMARK  205  A    between atoms: _504  and  _506
REMARK  206  A    between atoms: _506  and  _507
REMARK  207  A    between atoms: _506  and  _509
REMARK  208  A    between atoms: _509  and  _510
REMARK  209  A    between atoms: _515  and  _517
REMARK  210  A    between atoms: _517  and  _518
REMARK  211  A    between atoms: _517  and  _520
REMARK  212  A    between atoms: _520  and  _521
REMARK  213  A    between atoms: _521  and  _522
REMARK  214  A    between atoms: _525  and  _527
REMARK  215  A    between atoms: _527  and  _528
REMARK  216  A    between atoms: _527  and  _530
REMARK  217  A    between atoms: _530  and  _531
REMARK  218  A    between atoms: _534  and  _536
REMARK  219  A    between atoms: _536  and  _537
REMARK  220  A    between atoms: _536  and  _539
REMARK  221  A    between atoms: _541  and  _543
REMARK  222  A    between atoms: _543  and  _544
REMARK  223  A    between atoms: _543  and  _546
REMARK  224  A    between atoms: _546  and  _547
REMARK  225  A    between atoms: _549  and  _551
REMARK  226  A    between atoms: _551  and  _552
REMARK  227  A    between atoms: _554  and  _556
REMARK  228  A    between atoms: _556  and  _557
REMARK  229  A    between atoms: _556  and  _559
REMARK  230  A    between atoms: _562  and  _564
REMARK  231  A    between atoms: _564  and  _565
REMARK  232  A    between atoms: _568  and  _570
REMARK  233  A    between atoms: _570  and  _571
REMARK  234  A    between atoms: _570  and  _573
REMARK  235  A    between atoms: _573  and  _574
REMARK  236  A    between atoms: _577  and  _579
REMARK  237  A    between atoms: _579  and  _580
REMARK  238  A    between atoms: _582  and  _584
REMARK  239  A    between atoms: _584  and  _585
REMARK  240  A    between atoms: _584  and  _587
REMARK  241  A    between atoms: _590  and  _592
REMARK  242  A    between atoms: _592  and  _593
REMARK  243  A    between atoms: _592  and  _595
REMARK  244  A    between atoms: _595  and  _596
REMARK  245  A    between atoms: _599  and  _601
REMARK  246  A    between atoms: _601  and  _602
REMARK  247  A    between atoms: _601  and  _604
REMARK  248  A    between atoms: _604  and  _605
REMARK  249  A    between atoms: _605  and  _606
REMARK  250  A    between atoms: _606  and  _607
REMARK  251  A    between atoms: _616  and  _618
REMARK  252  A    between atoms: _618  and  _619
REMARK  253  A    between atoms: _618  and  _621
REMARK  254  A    between atoms: _621  and  _622
REMARK  255  A    between atoms: _625  and  _627
REMARK  256  A    between atoms: _627  and  _628
REMARK  257  A    between atoms: _627  and  _630
REMARK  258  A    between atoms: _630  and  _631
REMARK  259  A    between atoms: _634  and  _636
REMARK  260  A    between atoms: _636  and  _637
REMARK  261  A    between atoms: _636  and  _639
REMARK  262  A    between atoms: _639  and  _640
REMARK                            x       y       z     vdW  Elec       q    Type
REMARK                         _______ _______ _______ _____ _____    ______ ____
ROOT
ATOM      1  O   HOH     1     -10.150  -7.373   4.497  0.00  0.00    +0.000 OA
ENDROOT
TORSDOF 0
REMARK  Name = ../refined-set-2016/3a5y/3a5y_pocket.pdb
REMARK  262 active torsions:
REMARK  status: ('A' for Active; 'I' for Inactive)
REMARK    1  A    between atoms: _1  and  _3
REMARK    2  A    between atoms: _3  and  _4
REMARK    3  A    between atoms: _3  and  _6
REMARK    4  A    between atoms: _9  and  _11
REMARK    5  A    between atoms: _11  and  _12
REMARK    6  A    between atoms: _11  and  _14
REMARK    7  A    between atoms: _14  and  _15
REMARK    8  A    between atoms: _18  and  _20
REMARK    9  A    between atoms: _20  and  _21
REMARK   10  A    between atoms: _20  and  _23
REMARK   11  A    between atoms: _23  and  _24
REMARK   12  A    between atoms: _29  and  _31
REMARK   13  A    between atoms: _31  and  _32
REMARK   14  A    between atoms: _31  and  _34
REMARK   15  A    between atoms: _34  and  _35
REMARK   16  A    between atoms: _38  and  _40
REMARK   17  A    between atoms: _40  and  _41
REMARK   18  A    between atoms: _40  and  _43
REMARK   19  A    between atoms: _43  and  _44
REMARK   20  A    between atoms: _47  and  _49
REMARK   21  A    between atoms: _49  and  _50
REMARK   22  A    between atoms: _49  and  _52
REMARK   23  A    between atoms: _52  and  _53
REMARK   24  A    between atoms: _56  and  _57
REMARK   25  A    between atoms: _62  and  _64
REMARK   26  A    between atoms: _64  and  _65
REMARK   27  A    between atoms: _64  and  _67
REMARK   28  A    between atoms: _67  and  _68
REMARK   29  A    between atoms: _68  and  _69
REMARK   30  A    between atoms: _72  and  _74
REMARK   31  A    between atoms: _74  and  _75
REMARK   32  A    between atoms: _74  and  _77
REMARK   33  A    between atoms: _77  and  _78
REMARK   34  A    between atoms: _83  and  _84
REMARK   35  A    between atoms: _86  and  _88
REMARK   36  A    between atoms: _88  and  _89
REMARK   37  A    between atoms: _88  and  _91
REMARK   38  A    between atoms: _91  and  _92
REMARK   39  A    between atoms: _92  and  _93
REMARK   40  A    between atoms: _95  and  _97
REMARK   41  A    between atoms: _97  and  _98
REMARK   42  A    between atoms: _97  and  _100
REMARK   43  A    between atoms: _100  and  _101
REMARK   44  A    between atoms: _101  and  _102
REMARK   45  A    between atoms: _102  and  _103
REMARK   46  A    between atoms: _103  and  _104
REMARK   47  A    between atoms: _108  and  _110
REMARK   48  A    between atoms: _110  and  _111
REMARK   49  A    between atoms: _110  and  _113
REMARK   50  A    between atoms: _113  and  _114
REMARK   51  A    between atoms: _116  and  _118
REMARK   52  A    between atoms: _118  and  _119
REMARK   53  A    between atoms: _118  and  _121
REMARK   54  A    between atoms: _121  and  _122
REMARK   55  A    between atoms: _128  and  _130
REMARK   56  A    between atoms: _130  and  _131
REMARK   57  A    between atoms: _130  and  _133
REMARK   58  A    between atoms: _133  and  _134
REMARK   59  A    between atoms: _134  and  _135
REMARK   60  A    between atoms: _135  and  _136
REMARK   61  A    between atoms: _145  and  _147
REMARK   62  A    between atoms: _147  and  _148
REMARK   63  A    between atoms: _147  and  _150
REMARK   64  A    between atoms: _150  and  _151
REMARK   65  A    between atoms: _156  and  _158
REMARK   66  A    between atoms: _158  and  _159
REMARK   67  A    between atoms: _158  and  _161
REMARK   68  A    between atoms: _161  and  _162
REMARK   69  A    between atoms: _162  and  _163
REMARK   70  A    between atoms: _166  and  _168
REMARK   71  A    between atoms: _168  and  _169
REMARK   72  A    between atoms: _168  and  _171
REMARK   73  A    between atoms: _171  and  _172
REMARK   74  A    between atoms: _172  and  _173
REMARK   75  A    between atoms: _176  and  _178
REMARK   76  A    between atoms: _178  and  _179
REMARK   77  A    between atoms: _178  and  _181
REMARK   78  A    between atoms: _181  and  _182
REMARK   79  A    between atoms: _182  and  _183
REMARK   80  A    between atoms: _185  and  _187
REMARK   81  A    between atoms: _187  and  _188
REMARK   82  A    between atoms: _190  and  _192
REMARK   83  A    between atoms: _192  and  _193
REMARK   84  A    between atoms: _192  and  _195
REMARK   85  A    between atoms: _195  and  _196
REMARK   86  A    between atoms: _196  and  _197
REMARK   87  A    between atoms: _197  and  _198
REMARK   88  A    between atoms: _207  and  _209
REMARK   89  A    between atoms: _209  and  _210
REMARK   90  A    between atoms: _209  and  _212
REMARK   91  A    between atoms: _212  and  _213
REMARK   92  A    between atoms: _218  and  _219
REMARK   93  A    between atoms: _221  and  _223
REMARK   94  A    between atoms: _223  and  _224
REMARK   95  A    between atoms: _223  and  _226
REMARK   96  A    between atoms: _226  and  _227
REMARK   97  A    between atoms: _232  and  _234
REMARK   98  A    between atoms: _234  and  _235
REMARK   99  A    between atoms: _234  and  _237
REMARK  100  A    between atoms: _237  and  _238
REMARK  101  A    between atoms: _244  and  _245
REMARK  102  A    between atoms: _250  and  _252
REMARK  103  A    between atoms: _252  and  _253
REMARK  104  A    between atoms: _252  and  _255
REMARK  105  A    between atoms: _255  and  _256
REMARK  106  A    between atoms: _256  and  _257
REMARK  107  A    between atoms: _260  and  _262
REMARK  108  A    between atoms: _262  and  _263
REMARK  109  A    between atoms: _262  and  _265
REMARK  110  A    between atoms: _265  and  _266
REMARK  111  A    between atoms: _272  and  _274
REMARK  112  A    between atoms: _274  and  _275
REMARK  113  A    between atoms: _274  and  _277
REMARK  114  A    between atoms: _277  and  _278
REMARK  115  A    between atoms: _281  and  _283
REMARK  116  A    between atoms: _283  and  _284
REMARK  117  A    between atoms: _283  and  _286
REMARK  118  A    between atoms: _286  and  _287
REMARK  119  A    between atoms: _287  and  _288
REMARK  120  A    between atoms: _290  and  _292
REMARK  121  A    between atoms: _292  and  _293
REMARK  122  A    between atoms: _292  and  _295
REMARK  123  A    between atoms: _295  and  _296
REMARK  124  A    between atoms: _299  and  _301
REMARK  125  A    between atoms: _301  and  _302
REMARK  126  A    between atoms: _301  and  _304
REMARK  127  A    between atoms: _304  and  _305
REMARK  128  A    between atoms: _305  and  _306
REMARK  129  A    between atoms: _309  and  _311
REMARK  130  A    between atoms: _311  and  _312
REMARK  131  A    between atoms: _311  and  _314
REMARK  132  A    between atoms: _314  and  _315
REMARK  133  A    between atoms: _325  and  _327
REMARK  134  A    between atoms: _327  and  _328
REMARK  135  A    between atoms: _327  and  _330
REMARK  136  A    between atoms: _330  and  _331
REMARK  137  A    between atoms: _336  and  _337
REMARK  138  A    between atoms: _339  and  _341
REMARK  139  A    between atoms: _341  and  _342
REMARK  140  A    between atoms: _341  and  _344
REMARK  141  A    between atoms: _344  and  _345
REMARK  142  A    between atoms: _348  and  _350
REMARK  143  A    between atoms: _350  and  _351
REMARK  144  A    between atoms: _350  and  _353
REMARK  145  A    between atoms: _353  and  _354
REMARK  146  A    between atoms: _356  and  _358
REMARK  147  A    between atoms: _358  and  _359
REMARK  148  A    between atoms: _358  and  _361
REMARK  149  A    between atoms: _361  and  _362
REMARK  150  A    between atoms: _365  and  _367
REMARK  151  A    between atoms: _367  and  _368
REMARK  152  A    between atoms: _371  and  _373
REMARK  153  A    between atoms: _373  and  _374
REMARK  154  A    between atoms: _373  and  _376
REMARK  155  A    between atoms: _376  and  _377
REMARK  156  A    between atoms: _377  and  _378
REMARK  157  A    between atoms: _381  and  _383
REMARK  158  A    between atoms: _383  and  _384
REMARK  159  A    between atoms: _383  and  _386
REMARK  160  A    between atoms: _386  and  _387
REMARK  161  A    between atoms: _387  and  _388
REMARK  162  A    between atoms: _388  and  _389
REMARK  163  A    between atoms: _398  and  _400
REMARK  164  A    between atoms: _400  and  _401
REMARK  165  A    between atoms: _400  and  _403
REMARK  166  A    between atoms: _403  and  _404
REMARK  167  A    between atoms: _410  and  _412
REMARK  168  A    between atoms: _412  and  _413
REMARK  169  A    between atoms: _412  and  _415
REMARK  170  A    between atoms: _415  and  _416
REMARK  171  A    between atoms: _416  and  _417
REMARK  172  A    between atoms: _420  and  _422
REMARK  173  A    between atoms: _422  and  _423
REMARK  174  A    between atoms: _422  and  _425
REMARK  175  A    between atoms: _428  and  _430
REMARK  176  A    between atoms: _430  and  _431
REMARK  177  A    between atoms: _430  and  _433
REMARK  178  A    between atoms: _433  and  _434
REMARK  179  A    between atoms: _439  and  _440
REMARK  180  A    between atoms: _442  and  _444
REMARK  181  A    between atoms: _444  and  _445
REMARK  182  A    between atoms: _444  and  _447
REMARK  183  A    between atoms: _447  and  _448
REMARK  184  A    between atoms: _451  and  _453
REMARK  185  A    between atoms: _453  and  _454
REMARK  186  A    between atoms: _453  and  _456
REMARK  187  A    between atoms: _456  and  _457
REMARK  188  A    between atoms: _457  and  _458
REMARK  189  A    between atoms: _461  and  _463
REMARK  190  A    between atoms: _463  and  _464
REMARK  191  A    between atoms: _463  and  _466
REMARK  192  A    between atoms: _466  and  _467
REMARK  193  A    between atoms: _470  and  _472
REMARK  194  A    between atoms: _472  and  _473
REMARK  195  A    between atoms: _476  and  _478
REMARK  196  A    between atoms: _478  and  _479
REMARK  197  A    between atoms: _478  and  _481
REMARK  198  A    between atoms: _481  and  _482
REMARK  199  A    between atoms: _487  and  _489
REMARK  200  A    between atoms: _489  and  _490
REMARK  201  A    between atoms: _492  and  _494
REMARK  202  A    between atoms: _494  and  _495
REMARK  203  A    between atoms: _494  and  _497
REMARK  204  A    between atoms: _497  and  _498
REMARK  205  A    between atoms: _504  and  _506
REMARK  206  A    between atoms: _506  and  _507
REMARK  207  A    between atoms: _506  and  _509
REMARK  208  A    between atoms: _509  and  _510
REMARK  209  A    between atoms: _515  and  _517
REMARK  210  A    between atoms: _517  and  _518
REMARK  211  A    between atoms: _517  and  _520
REMARK  212  A    between atoms: _520  and  _521
REMARK  213  A    between atoms: _521  and  _522
REMARK  214  A    between atoms: _525  and  _527
REMARK  215  A    between atoms: _527  and  _528
REMARK  216  A    between atoms: _527  and  _530
REMARK  217  A    between atoms: _530  and  _531
REMARK  218  A    between atoms: _534  and  _536
REMARK  219  A    between atoms: _536  and  _537
REMARK  220  A    between atoms: _536  and  _539
REMARK  221  A    between atoms: _541  and  _543
REMARK  222  A    between atoms: _543  and  _544
REMARK  223  A    between atoms: _543  and  _546
REMARK  224  A    between atoms: _546  and  _547
REMARK  225  A    between atoms: _549  and  _551
REMARK  226  A    between atoms: _551  and  _552
REMARK  227  A    between atoms: _554  and  _556
REMARK  228  A    between atoms: _556  and  _557
REMARK  229  A    between atoms: _556  and  _559
REMARK  230  A    between atoms: _562  and  _564
REMARK  231  A    between atoms: _564  and  _565
REMARK  232  A    between atoms: _568  and  _570
REMARK  233  A    between atoms: _570  and  _571
REMARK  234  A    between atoms: _570  and  _573
REMARK  235  A    between atoms: _573  and  _574
REMARK  236  A    between atoms: _577  and  _579
REMARK  237  A    between atoms: _579  and  _580
REMARK  238  A    between atoms: _582  and  _584
REMARK  239  A    between atoms: _584  and  _585
REMARK  240  A    between atoms: _584  and  _587
REMARK  241  A    between atoms: _590  and  _592
REMARK  242  A    between atoms: _592  and  _593
REMARK  243  A    between atoms: _592  and  _595
REMARK  244  A    between atoms: _595  and  _596
REMARK  245  A    between atoms: _599  and  _601
REMARK  246  A    between atoms: _601  and  _602
REMARK  247  A    between atoms: _601  and  _604
REMARK  248  A    between atoms: _604  and  _605
REMARK  249  A    between atoms: _605  and  _606
REMARK  250  A    between atoms: _606  and  _607
REMARK  251  A    between atoms: _616  and  _618
REMARK  252  A    between atoms: _618  and  _619
REMARK  253  A    between atoms: _618  and  _621
REMARK  254  A    between atoms: _621  and  _622
REMARK  255  A    between atoms: _625  and  _627
REMARK  256  A    between atoms: _627  and  _628
REMARK  257  A    between atoms: _627  and  _630
REMARK  258  A    between atoms: _630  and  _631
REMARK  259  A    between atoms: _634  and  _636
REMARK  260  A    between atoms: _636  and  _637
REMARK  261  A    between atoms: _636  and  _639
REMARK  262  A    between atoms: _639  and  _640
REMARK                            x       y       z     vdW  Elec       q    Type
REMARK                         _______ _______ _______ _____ _____    ______ ____
ROOT
ATOM      1  O   HOH     1      -3.957 -10.100  -6.692  0.00  0.00    +0.000 OA
ENDROOT
TORSDOF 0
REMARK  Name = ../refined-set-2016/3a5y/3a5y_pocket.pdb
REMARK  262 active torsions:
REMARK  status: ('A' for Active; 'I' for Inactive)
REMARK    1  A    between atoms: _1  and  _3
REMARK    2  A    between atoms: _3  and  _4
REMARK    3  A    between atoms: _3  and  _6
REMARK    4  A    between atoms: _9  and  _11
REMARK    5  A    between atoms: _11  and  _12
REMARK    6  A    between atoms: _11  and  _14
REMARK    7  A    between atoms: _14  and  _15
REMARK    8  A    between atoms: _18  and  _20
REMARK    9  A    between atoms: _20  and  _21
REMARK   10  A    between atoms: _20  and  _23
REMARK   11  A    between atoms: _23  and  _24
REMARK   12  A    between atoms: _29  and  _31
REMARK   13  A    between atoms: _31  and  _32
REMARK   14  A    between atoms: _31  and  _34
REMARK   15  A    between atoms: _34  and  _35
REMARK   16  A    between atoms: _38  and  _40
REMARK   17  A    between atoms: _40  and  _41
REMARK   18  A    between atoms: _40  and  _43
REMARK   19  A    between atoms: _43  and  _44
REMARK   20  A    between atoms: _47  and  _49
REMARK   21  A    between atoms: _49  and  _50
REMARK   22  A    between atoms: _49  and  _52
REMARK   23  A    between atoms: _52  and  _53
REMARK   24  A    between atoms: _56  and  _57
REMARK   25  A    between atoms: _62  and  _64
REMARK   26  A    between atoms: _64  and  _65
REMARK   27  A    between atoms: _64  and  _67
REMARK   28  A    between atoms: _67  and  _68
REMARK   29  A    between atoms: _68  and  _69
REMARK   30  A    between atoms: _72  and  _74
REMARK   31  A    between atoms: _74  and  _75
REMARK   32  A    between atoms: _74  and  _77
REMARK   33  A    between atoms: _77  and  _78
REMARK   34  A    between atoms: _83  and  _84
REMARK   35  A    between atoms: _86  and  _88
REMARK   36  A    between atoms: _88  and  _89
REMARK   37  A    between atoms: _88  and  _91
REMARK   38  A    between atoms: _91  and  _92
REMARK   39  A    between atoms: _92  and  _93
REMARK   40  A    between atoms: _95  and  _97
REMARK   41  A    between atoms: _97  and  _98
REMARK   42  A    between atoms: _97  and  _100
REMARK   43  A    between atoms: _100  and  _101
REMARK   44  A    between atoms: _101  and  _102
REMARK   45  A    between atoms: _102  and  _103
REMARK   46  A    between atoms: _103  and  _104
REMARK   47  A    between atoms: _108  and  _110
REMARK   48  A    between atoms: _110  and  _111
REMARK   49  A    between atoms: _110  and  _113
REMARK   50  A    between atoms: _113  and  _114
REMARK   51  A    between atoms: _116  and  _118
REMARK   52  A    between atoms: _118  and  _119
REMARK   53  A    between atoms: _118  and  _121
REMARK   54  A    between atoms: _121  and  _122
REMARK   55  A    between atoms: _128  and  _130
REMARK   56  A    between atoms: _130  and  _131
REMARK   57  A    between atoms: _130  and  _133
REMARK   58  A    between atoms: _133  and  _134
REMARK   59  A    between atoms: _134  and  _135
REMARK   60  A    between atoms: _135  and  _136
REMARK   61  A    between atoms: _145  and  _147
REMARK   62  A    between atoms: _147  and  _148
REMARK   63  A    between atoms: _147  and  _150
REMARK   64  A    between atoms: _150  and  _151
REMARK   65  A    between atoms: _156  and  _158
REMARK   66  A    between atoms: _158  and  _159
REMARK   67  A    between atoms: _158  and  _161
REMARK   68  A    between atoms: _161  and  _162
REMARK   69  A    between atoms: _162  and  _163
REMARK   70  A    between atoms: _166  and  _168
REMARK   71  A    between atoms: _168  and  _169
REMARK   72  A    between atoms: _168  and  _171
REMARK   73  A    between atoms: _171  and  _172
REMARK   74  A    between atoms: _172  and  _173
REMARK   75  A    between atoms: _176  and  _178
REMARK   76  A    between atoms: _178  and  _179
REMARK   77  A    between atoms: _178  and  _181
REMARK   78  A    between atoms: _181  and  _182
REMARK   79  A    between atoms: _182  and  _183
REMARK   80  A    between atoms: _185  and  _187
REMARK   81  A    between atoms: _187  and  _188
REMARK   82  A    between atoms: _190  and  _192
REMARK   83  A    between atoms: _192  and  _193
REMARK   84  A    between atoms: _192  and  _195
REMARK   85  A    between atoms: _195  and  _196
REMARK   86  A    between atoms: _196  and  _197
REMARK   87  A    between atoms: _197  and  _198
REMARK   88  A    between atoms: _207  and  _209
REMARK   89  A    between atoms: _209  and  _210
REMARK   90  A    between atoms: _209  and  _212
REMARK   91  A    between atoms: _212  and  _213
REMARK   92  A    between atoms: _218  and  _219
REMARK   93  A    between atoms: _221  and  _223
REMARK   94  A    between atoms: _223  and  _224
REMARK   95  A    between atoms: _223  and  _226
REMARK   96  A    between atoms: _226  and  _227
REMARK   97  A    between atoms: _232  and  _234
REMARK   98  A    between atoms: _234  and  _235
REMARK   99  A    between atoms: _234  and  _237
REMARK  100  A    between atoms: _237  and  _238
REMARK  101  A    between atoms: _244  and  _245
REMARK  102  A    between atoms: _250  and  _252
REMARK  103  A    between atoms: _252  and  _253
REMARK  104  A    between atoms: _252  and  _255
REMARK  105  A    between atoms: _255  and  _256
REMARK  106  A    between atoms: _256  and  _257
REMARK  107  A    between atoms: _260  and  _262
REMARK  108  A    between atoms: _262  and  _263
REMARK  109  A    between atoms: _262  and  _265
REMARK  110  A    between atoms: _265  and  _266
REMARK  111  A    between atoms: _272  and  _274
REMARK  112  A    between atoms: _274  and  _275
REMARK  113  A    between atoms: _274  and  _277
REMARK  114  A    between atoms: _277  and  _278
REMARK  115  A    between atoms: _281  and  _283
REMARK  116  A    between atoms: _283  and  _284
REMARK  117  A    between atoms: _283  and  _286
REMARK  118  A    between atoms: _286  and  _287
REMARK  119  A    between atoms: _287  and  _288
REMARK  120  A    between atoms: _290  and  _292
REMARK  121  A    between atoms: _292  and  _293
REMARK  122  A    between atoms: _292  and  _295
REMARK  123  A    between atoms: _295  and  _296
REMARK  124  A    between atoms: _299  and  _301
REMARK  125  A    between atoms: _301  and  _302
REMARK  126  A    between atoms: _301  and  _304
REMARK  127  A    between atoms: _304  and  _305
REMARK  128  A    between atoms: _305  and  _306
REMARK  129  A    between atoms: _309  and  _311
REMARK  130  A    between atoms: _311  and  _312
REMARK  131  A    between atoms: _311  and  _314
REMARK  132  A    between atoms: _314  and  _315
REMARK  133  A    between atoms: _325  and  _327
REMARK  134  A    between atoms: _327  and  _328
REMARK  135  A    between atoms: _327  and  _330
REMARK  136  A    between atoms: _330  and  _331
REMARK  137  A    between atoms: _336  and  _337
REMARK  138  A    between atoms: _339  and  _341
REMARK  139  A    between atoms: _341  and  _342
REMARK  140  A    between atoms: _341  and  _344
REMARK  141  A    between atoms: _344  and  _345
REMARK  142  A    between atoms: _348  and  _350
REMARK  143  A    between atoms: _350  and  _351
REMARK  144  A    between atoms: _350  and  _353
REMARK  145  A    between atoms: _353  and  _354
REMARK  146  A    between atoms: _356  and  _358
REMARK  147  A    between atoms: _358  and  _359
REMARK  148  A    between atoms: _358  and  _361
REMARK  149  A    between atoms: _361  and  _362
REMARK  150  A    between atoms: _365  and  _367
REMARK  151  A    between atoms: _367  and  _368
REMARK  152  A    between atoms: _371  and  _373
REMARK  153  A    between atoms: _373  and  _374
REMARK  154  A    between atoms: _373  and  _376
REMARK  155  A    between atoms: _376  and  _377
REMARK  156  A    between atoms: _377  and  _378
REMARK  157  A    between atoms: _381  and  _383
REMARK  158  A    between atoms: _383  and  _384
REMARK  159  A    between atoms: _383  and  _386
REMARK  160  A    between atoms: _386  and  _387
REMARK  161  A    between atoms: _387  and  _388
REMARK  162  A    between atoms: _388  and  _389
REMARK  163  A    between atoms: _398  and  _400
REMARK  164  A    between atoms: _400  and  _401
REMARK  165  A    between atoms: _400  and  _403
REMARK  166  A    between atoms: _403  and  _404
REMARK  167  A    between atoms: _410  and  _412
REMARK  168  A    between atoms: _412  and  _413
REMARK  169  A    between atoms: _412  and  _415
REMARK  170  A    between atoms: _415  and  _416
REMARK  171  A    between atoms: _416  and  _417
REMARK  172  A    between atoms: _420  and  _422
REMARK  173  A    between atoms: _422  and  _423
REMARK  174  A    between atoms: _422  and  _425
REMARK  175  A    between atoms: _428  and  _430
REMARK  176  A    between atoms: _430  and  _431
REMARK  177  A    between atoms: _430  and  _433
REMARK  178  A    between atoms: _433  and  _434
REMARK  179  A    between atoms: _439  and  _440
REMARK  180  A    between atoms: _442  and  _444
REMARK  181  A    between atoms: _444  and  _445
REMARK  182  A    between atoms: _444  and  _447
REMARK  183  A    between atoms: _447  and  _448
REMARK  184  A    between atoms: _451  and  _453
REMARK  185  A    between atoms: _453  and  _454
REMARK  186  A    between atoms: _453  and  _456
REMARK  187  A    between atoms: _456  and  _457
REMARK  188  A    between atoms: _457  and  _458
REMARK  189  A    between atoms: _461  and  _463
REMARK  190  A    between atoms: _463  and  _464
REMARK  191  A    between atoms: _463  and  _466
REMARK  192  A    between atoms: _466  and  _467
REMARK  193  A    between atoms: _470  and  _472
REMARK  194  A    between atoms: _472  and  _473
REMARK  195  A    between atoms: _476  and  _478
REMARK  196  A    between atoms: _478  and  _479
REMARK  197  A    between atoms: _478  and  _481
REMARK  198  A    between atoms: _481  and  _482
REMARK  199  A    between atoms: _487  and  _489
REMARK  200  A    between atoms: _489  and  _490
REMARK  201  A    between atoms: _492  and  _494
REMARK  202  A    between atoms: _494  and  _495
REMARK  203  A    between atoms: _494  and  _497
REMARK  204  A    between atoms: _497  and  _498
REMARK  205  A    between atoms: _504  and  _506
REMARK  206  A    between atoms: _506  and  _507
REMARK  207  A    between atoms: _506  and  _509
REMARK  208  A    between atoms: _509  and  _510
REMARK  209  A    between atoms: _515  and  _517
REMARK  210  A    between atoms: _517  and  _518
REMARK  211  A    between atoms: _517  and  _520
REMARK  212  A    between atoms: _520  and  _521
REMARK  213  A    between atoms: _521  and  _522
REMARK  214  A    between atoms: _525  and  _527
REMARK  215  A    between atoms: _527  and  _528
REMARK  216  A    between atoms: _527  and  _530
REMARK  217  A    between atoms: _530  and  _531
REMARK  218  A    between atoms: _534  and  _536
REMARK  219  A    between atoms: _536  and  _537
REMARK  220  A    between atoms: _536  and  _539
REMARK  221  A    between atoms: _541  and  _543
REMARK  222  A    between atoms: _543  and  _544
REMARK  223  A    between atoms: _543  and  _546
REMARK  224  A    between atoms: _546  and  _547
REMARK  225  A    between atoms: _549  and  _551
REMARK  226  A    between atoms: _551  and  _552
REMARK  227  A    between atoms: _554  and  _556
REMARK  228  A    between atoms: _556  and  _557
REMARK  229  A    between atoms: _556  and  _559
REMARK  230  A    between atoms: _562  and  _564
REMARK  231  A    between atoms: _564  and  _565
REMARK  232  A    between atoms: _568  and  _570
REMARK  233  A    between atoms: _570  and  _571
REMARK  234  A    between atoms: _570  and  _573
REMARK  235  A    between atoms: _573  and  _574
REMARK  236  A    between atoms: _577  and  _579
REMARK  237  A    between atoms: _579  and  _580
REMARK  238  A    between atoms: _582  and  _584
REMARK  239  A    between atoms: _584  and  _585
REMARK  240  A    between atoms: _584  and  _587
REMARK  241  A    between atoms: _590  and  _592
REMARK  242  A    between atoms: _592  and  _593
REMARK  243  A    between atoms: _592  and  _595
REMARK  244  A    between atoms: _595  and  _596
REMARK  245  A    between atoms: _599  and  _601
REMARK  246  A    between atoms: _601  and  _602
REMARK  247  A    between atoms: _601  and  _604
REMARK  248  A    between atoms: _604  and  _605
REMARK  249  A    between atoms: _605  and  _606
REMARK  250  A    between atoms: _606  and  _607
REMARK  251  A    between atoms: _616  and  _618
REMARK  252  A    between atoms: _618  and  _619
REMARK  253  A    between atoms: _618  and  _621
REMARK  254  A    between atoms: _621  and  _622
REMARK  255  A    between atoms: _625  and  _627
REMARK  256  A    between atoms: _627  and  _628
REMARK  257  A    between atoms: _627  and  _630
REMARK  258  A    between atoms: _630  and  _631
REMARK  259  A    between atoms: _634  and  _636
REMARK  260  A    between atoms: _636  and  _637
REMARK  261  A    between atoms: _636  and  _639
REMARK  262  A    between atoms: _639  and  _640
REMARK                            x       y       z     vdW  Elec       q    Type
REMARK                         _______ _______ _______ _____ _____    ______ ____
ROOT
ATOM      1  O   HOH     1       7.889   0.100  -6.579  0.00  0.00    +0.000 OA
ENDROOT
TORSDOF 0
REMARK  Name = ../refined-set-2016/3a5y/3a5y_pocket.pdb
REMARK  262 active torsions:
REMARK  status: ('A' for Active; 'I' for Inactive)
REMARK    1  A    between atoms: _1  and  _3
REMARK    2  A    between atoms: _3  and  _4
REMARK    3  A    between atoms: _3  and  _6
REMARK    4  A    between atoms: _9  and  _11
REMARK    5  A    between atoms: _11  and  _12
REMARK    6  A    between atoms: _11  and  _14
REMARK    7  A    between atoms: _14  and  _15
REMARK    8  A    between atoms: _18  and  _20
REMARK    9  A    between atoms: _20  and  _21
REMARK   10  A    between atoms: _20  and  _23
REMARK   11  A    between atoms: _23  and  _24
REMARK   12  A    between atoms: _29  and  _31
REMARK   13  A    between atoms: _31  and  _32
REMARK   14  A    between atoms: _31  and  _34
REMARK   15  A    between atoms: _34  and  _35
REMARK   16  A    between atoms: _38  and  _40
REMARK   17  A    between atoms: _40  and  _41
REMARK   18  A    between atoms: _40  and  _43
REMARK   19  A    between atoms: _43  and  _44
REMARK   20  A    between atoms: _47  and  _49
REMARK   21  A    between atoms: _49  and  _50
REMARK   22  A    between atoms: _49  and  _52
REMARK   23  A    between atoms: _52  and  _53
REMARK   24  A    between atoms: _56  and  _57
REMARK   25  A    between atoms: _62  and  _64
REMARK   26  A    between atoms: _64  and  _65
REMARK   27  A    between atoms: _64  and  _67
REMARK   28  A    between atoms: _67  and  _68
REMARK   29  A    between atoms: _68  and  _69
REMARK   30  A    between atoms: _72  and  _74
REMARK   31  A    between atoms: _74  and  _75
REMARK   32  A    between atoms: _74  and  _77
REMARK   33  A    between atoms: _77  and  _78
REMARK   34  A    between atoms: _83  and  _84
REMARK   35  A    between atoms: _86  and  _88
REMARK   36  A    between atoms: _88  and  _89
REMARK   37  A    between atoms: _88  and  _91
REMARK   38  A    between atoms: _91  and  _92
REMARK   39  A    between atoms: _92  and  _93
REMARK   40  A    between atoms: _95  and  _97
REMARK   41  A    between atoms: _97  and  _98
REMARK   42  A    between atoms: _97  and  _100
REMARK   43  A    between atoms: _100  and  _101
REMARK   44  A    between atoms: _101  and  _102
REMARK   45  A    between atoms: _102  and  _103
REMARK   46  A    between atoms: _103  and  _104
REMARK   47  A    between atoms: _108  and  _110
REMARK   48  A    between atoms: _110  and  _111
REMARK   49  A    between atoms: _110  and  _113
REMARK   50  A    between atoms: _113  and  _114
REMARK   51  A    between atoms: _116  and  _118
REMARK   52  A    between atoms: _118  and  _119
REMARK   53  A    between atoms: _118  and  _121
REMARK   54  A    between atoms: _121  and  _122
REMARK   55  A    between atoms: _128  and  _130
REMARK   56  A    between atoms: _130  and  _131
REMARK   57  A    between atoms: _130  and  _133
REMARK   58  A    between atoms: _133  and  _134
REMARK   59  A    between atoms: _134  and  _135
REMARK   60  A    between atoms: _135  and  _136
REMARK   61  A    between atoms: _145  and  _147
REMARK   62  A    between atoms: _147  and  _148
REMARK   63  A    between atoms: _147  and  _150
REMARK   64  A    between atoms: _150  and  _151
REMARK   65  A    between atoms: _156  and  _158
REMARK   66  A    between atoms: _158  and  _159
REMARK   67  A    between atoms: _158  and  _161
REMARK   68  A    between atoms: _161  and  _162
REMARK   69  A    between atoms: _162  and  _163
REMARK   70  A    between atoms: _166  and  _168
REMARK   71  A    between atoms: _168  and  _169
REMARK   72  A    between atoms: _168  and  _171
REMARK   73  A    between atoms: _171  and  _172
REMARK   74  A    between atoms: _172  and  _173
REMARK   75  A    between atoms: _176  and  _178
REMARK   76  A    between atoms: _178  and  _179
REMARK   77  A    between atoms: _178  and  _181
REMARK   78  A    between atoms: _181  and  _182
REMARK   79  A    between atoms: _182  and  _183
REMARK   80  A    between atoms: _185  and  _187
REMARK   81  A    between atoms: _187  and  _188
REMARK   82  A    between atoms: _190  and  _192
REMARK   83  A    between atoms: _192  and  _193
REMARK   84  A    between atoms: _192  and  _195
REMARK   85  A    between atoms: _195  and  _196
REMARK   86  A    between atoms: _196  and  _197
REMARK   87  A    between atoms: _197  and  _198
REMARK   88  A    between atoms: _207  and  _209
REMARK   89  A    between atoms: _209  and  _210
REMARK   90  A    between atoms: _209  and  _212
REMARK   91  A    between atoms: _212  and  _213
REMARK   92  A    between atoms: _218  and  _219
REMARK   93  A    between atoms: _221  and  _223
REMARK   94  A    between atoms: _223  and  _224
REMARK   95  A    between atoms: _223  and  _226
REMARK   96  A    between atoms: _226  and  _227
REMARK   97  A    between atoms: _232  and  _234
REMARK   98  A    between atoms: _234  and  _235
REMARK   99  A    between atoms: _234  and  _237
REMARK  100  A    between atoms: _237  and  _238
REMARK  101  A    between atoms: _244  and  _245
REMARK  102  A    between atoms: _250  and  _252
REMARK  103  A    between atoms: _252  and  _253
REMARK  104  A    between atoms: _252  and  _255
REMARK  105  A    between atoms: _255  and  _256
REMARK  106  A    between atoms: _256  and  _257
REMARK  107  A    between atoms: _260  and  _262
REMARK  108  A    between atoms: _262  and  _263
REMARK  109  A    between atoms: _262  and  _265
REMARK  110  A    between atoms: _265  and  _266
REMARK  111  A    between atoms: _272  and  _274
REMARK  112  A    between atoms: _274  and  _275
REMARK  113  A    between atoms: _274  and  _277
REMARK  114  A    between atoms: _277  and  _278
REMARK  115  A    between atoms: _281  and  _283
REMARK  116  A    between atoms: _283  and  _284
REMARK  117  A    between atoms: _283  and  _286
REMARK  118  A    between atoms: _286  and  _287
REMARK  119  A    between atoms: _287  and  _288
REMARK  120  A    between atoms: _290  and  _292
REMARK  121  A    between atoms: _292  and  _293
REMARK  122  A    between atoms: _292  and  _295
REMARK  123  A    between atoms: _295  and  _296
REMARK  124  A    between atoms: _299  and  _301
REMARK  125  A    between atoms: _301  and  _302
REMARK  126  A    between atoms: _301  and  _304
REMARK  127  A    between atoms: _304  and  _305
REMARK  128  A    between atoms: _305  and  _306
REMARK  129  A    between atoms: _309  and  _311
REMARK  130  A    between atoms: _311  and  _312
REMARK  131  A    between atoms: _311  and  _314
REMARK  132  A    between atoms: _314  and  _315
REMARK  133  A    between atoms: _325  and  _327
REMARK  134  A    between atoms: _327  and  _328
REMARK  135  A    between atoms: _327  and  _330
REMARK  136  A    between atoms: _330  and  _331
REMARK  137  A    between atoms: _336  and  _337
REMARK  138  A    between atoms: _339  and  _341
REMARK  139  A    between atoms: _341  and  _342
REMARK  140  A    between atoms: _341  and  _344
REMARK  141  A    between atoms: _344  and  _345
REMARK  142  A    between atoms: _348  and  _350
REMARK  143  A    between atoms: _350  and  _351
REMARK  144  A    between atoms: _350  and  _353
REMARK  145  A    between atoms: _353  and  _354
REMARK  146  A    between atoms: _356  and  _358
REMARK  147  A    between atoms: _358  and  _359
REMARK  148  A    between atoms: _358  and  _361
REMARK  149  A    between atoms: _361  and  _362
REMARK  150  A    between atoms: _365  and  _367
REMARK  151  A    between atoms: _367  and  _368
REMARK  152  A    between atoms: _371  and  _373
REMARK  153  A    between atoms: _373  and  _374
REMARK  154  A    between atoms: _373  and  _376
REMARK  155  A    between atoms: _376  and  _377
REMARK  156  A    between atoms: _377  and  _378
REMARK  157  A    between atoms: _381  and  _383
REMARK  158  A    between atoms: _383  and  _384
REMARK  159  A    between atoms: _383  and  _386
REMARK  160  A    between atoms: _386  and  _387
REMARK  161  A    between atoms: _387  and  _388
REMARK  162  A    between atoms: _388  and  _389
REMARK  163  A    between atoms: _398  and  _400
REMARK  164  A    between atoms: _400  and  _401
REMARK  165  A    between atoms: _400  and  _403
REMARK  166  A    between atoms: _403  and  _404
REMARK  167  A    between atoms: _410  and  _412
REMARK  168  A    between atoms: _412  and  _413
REMARK  169  A    between atoms: _412  and  _415
REMARK  170  A    between atoms: _415  and  _416
REMARK  171  A    between atoms: _416  and  _417
REMARK  172  A    between atoms: _420  and  _422
REMARK  173  A    between atoms: _422  and  _423
REMARK  174  A    between atoms: _422  and  _425
REMARK  175  A    between atoms: _428  and  _430
REMARK  176  A    between atoms: _430  and  _431
REMARK  177  A    between atoms: _430  and  _433
REMARK  178  A    between atoms: _433  and  _434
REMARK  179  A    between atoms: _439  and  _440
REMARK  180  A    between atoms: _442  and  _444
REMARK  181  A    between atoms: _444  and  _445
REMARK  182  A    between atoms: _444  and  _447
REMARK  183  A    between atoms: _447  and  _448
REMARK  184  A    between atoms: _451  and  _453
REMARK  185  A    between atoms: _453  and  _454
REMARK  186  A    between atoms: _453  and  _456
REMARK  187  A    between atoms: _456  and  _457
REMARK  188  A    between atoms: _457  and  _458
REMARK  189  A    between atoms: _461  and  _463
REMARK  190  A    between atoms: _463  and  _464
REMARK  191  A    between atoms: _463  and  _466
REMARK  192  A    between atoms: _466  and  _467
REMARK  193  A    between atoms: _470  and  _472
REMARK  194  A    between atoms: _472  and  _473
REMARK  195  A    between atoms: _476  and  _478
REMARK  196  A    between atoms: _478  and  _479
REMARK  197  A    between atoms: _478  and  _481
REMARK  198  A    between atoms: _481  and  _482
REMARK  199  A    between atoms: _487  and  _489
REMARK  200  A    between atoms: _489  and  _490
REMARK  201  A    between atoms: _492  and  _494
REMARK  202  A    between atoms: _494  and  _495
REMARK  203  A    between atoms: _494  and  _497
REMARK  204  A    between atoms: _497  and  _498
REMARK  205  A    between atoms: _504  and  _506
REMARK  206  A    between atoms: _506  and  _507
REMARK  207  A    between atoms: _506  and  _509
REMARK  208  A    between atoms: _509  and  _510
REMARK  209  A    between atoms: _515  and  _517
REMARK  210  A    between atoms: _517  and  _518
REMARK  211  A    between atoms: _517  and  _520
REMARK  212  A    between atoms: _520  and  _521
REMARK  213  A    between atoms: _521  and  _522
REMARK  214  A    between atoms: _525  and  _527
REMARK  215  A    between atoms: _527  and  _528
REMARK  216  A    between atoms: _527  and  _530
REMARK  217  A    between atoms: _530  and  _531
REMARK  218  A    between atoms: _534  and  _536
REMARK  219  A    between atoms: _536  and  _537
REMARK  220  A    between atoms: _536  and  _539
REMARK  221  A    between atoms: _541  and  _543
REMARK  222  A    between atoms: _543  and  _544
REMARK  223  A    between atoms: _543  and  _546
REMARK  224  A    between atoms: _546  and  _547
REMARK  225  A    between atoms: _549  and  _551
REMARK  226  A    between atoms: _551  and  _552
REMARK  227  A    between atoms: _554  and  _556
REMARK  228  A    between atoms: _556  and  _557
REMARK  229  A    between atoms: _556  and  _559
REMARK  230  A    between atoms: _562  and  _564
REMARK  231  A    between atoms: _564  and  _565
REMARK  232  A    between atoms: _568  and  _570
REMARK  233  A    between atoms: _570  and  _571
REMARK  234  A    between atoms: _570  and  _573
REMARK  235  A    between atoms: _573  and  _574
REMARK  236  A    between atoms: _577  and  _579
REMARK  237  A    between atoms: _579  and  _580
REMARK  238  A    between atoms: _582  and  _584
REMARK  239  A    between atoms: _584  and  _585
REMARK  240  A    between atoms: _584  and  _587
REMARK  241  A    between atoms: _590  and  _592
REMARK  242  A    between atoms: _592  and  _593
REMARK  243  A    between atoms: _592  and  _595
REMARK  244  A    between atoms: _595  and  _596
REMARK  245  A    between atoms: _599  and  _601
REMARK  246  A    between atoms: _601  and  _602
REMARK  247  A    between atoms: _601  and  _604
REMARK  248  A    between atoms: _604  and  _605
REMARK  249  A    between atoms: _605  and  _606
REMARK  250  A    between atoms: _606  and  _607
REMARK  251  A    between atoms: _616  and  _618
REMARK  252  A    between atoms: _618  and  _619
REMARK  253  A    between atoms: _618  and  _621
REMARK  254  A    between atoms: _621  and  _622
REMARK  255  A    between atoms: _625  and  _627
REMARK  256  A    between atoms: _627  and  _628
REMARK  257  A    between atoms: _627  and  _630
REMARK  258  A    between atoms: _630  and  _631
REMARK  259  A    between atoms: _634  and  _636
REMARK  260  A    between atoms: _636  and  _637
REMARK  261  A    between atoms: _636  and  _639
REMARK  262  A    between atoms: _639  and  _640
REMARK                            x       y       z     vdW  Elec       q    Type
REMARK                         _______ _______ _______ _____ _____    ______ ____
ROOT
ATOM      1  O   HOH     1      11.767  -5.067  -8.670  0.00  0.00    +0.000 OA
ENDROOT
TORSDOF 0
REMARK  Name = ../refined-set-2016/3a5y/3a5y_pocket.pdb
REMARK  262 active torsions:
REMARK  status: ('A' for Active; 'I' for Inactive)
REMARK    1  A    between atoms: _1  and  _3
REMARK    2  A    between atoms: _3  and  _4
REMARK    3  A    between atoms: _3  and  _6
REMARK    4  A    between atoms: _9  and  _11
REMARK    5  A    between atoms: _11  and  _12
REMARK    6  A    between atoms: _11  and  _14
REMARK    7  A    between atoms: _14  and  _15
REMARK    8  A    between atoms: _18  and  _20
REMARK    9  A    between atoms: _20  and  _21
REMARK   10  A    between atoms: _20  and  _23
REMARK   11  A    between atoms: _23  and  _24
REMARK   12  A    between atoms: _29  and  _31
REMARK   13  A    between atoms: _31  and  _32
REMARK   14  A    between atoms: _31  and  _34
REMARK   15  A    between atoms: _34  and  _35
REMARK   16  A    between atoms: _38  and  _40
REMARK   17  A    between atoms: _40  and  _41
REMARK   18  A    between atoms: _40  and  _43
REMARK   19  A    between atoms: _43  and  _44
REMARK   20  A    between atoms: _47  and  _49
REMARK   21  A    between atoms: _49  and  _50
REMARK   22  A    between atoms: _49  and  _52
REMARK   23  A    between atoms: _52  and  _53
REMARK   24  A    between atoms: _56  and  _57
REMARK   25  A    between atoms: _62  and  _64
REMARK   26  A    between atoms: _64  and  _65
REMARK   27  A    between atoms: _64  and  _67
REMARK   28  A    between atoms: _67  and  _68
REMARK   29  A    between atoms: _68  and  _69
REMARK   30  A    between atoms: _72  and  _74
REMARK   31  A    between atoms: _74  and  _75
REMARK   32  A    between atoms: _74  and  _77
REMARK   33  A    between atoms: _77  and  _78
REMARK   34  A    between atoms: _83  and  _84
REMARK   35  A    between atoms: _86  and  _88
REMARK   36  A    between atoms: _88  and  _89
REMARK   37  A    between atoms: _88  and  _91
REMARK   38  A    between atoms: _91  and  _92
REMARK   39  A    between atoms: _92  and  _93
REMARK   40  A    between atoms: _95  and  _97
REMARK   41  A    between atoms: _97  and  _98
REMARK   42  A    between atoms: _97  and  _100
REMARK   43  A    between atoms: _100  and  _101
REMARK   44  A    between atoms: _101  and  _102
REMARK   45  A    between atoms: _102  and  _103
REMARK   46  A    between atoms: _103  and  _104
REMARK   47  A    between atoms: _108  and  _110
REMARK   48  A    between atoms: _110  and  _111
REMARK   49  A    between atoms: _110  and  _113
REMARK   50  A    between atoms: _113  and  _114
REMARK   51  A    between atoms: _116  and  _118
REMARK   52  A    between atoms: _118  and  _119
REMARK   53  A    between atoms: _118  and  _121
REMARK   54  A    between atoms: _121  and  _122
REMARK   55  A    between atoms: _128  and  _130
REMARK   56  A    between atoms: _130  and  _131
REMARK   57  A    between atoms: _130  and  _133
REMARK   58  A    between atoms: _133  and  _134
REMARK   59  A    between atoms: _134  and  _135
REMARK   60  A    between atoms: _135  and  _136
REMARK   61  A    between atoms: _145  and  _147
REMARK   62  A    between atoms: _147  and  _148
REMARK   63  A    between atoms: _147  and  _150
REMARK   64  A    between atoms: _150  and  _151
REMARK   65  A    between atoms: _156  and  _158
REMARK   66  A    between atoms: _158  and  _159
REMARK   67  A    between atoms: _158  and  _161
REMARK   68  A    between atoms: _161  and  _162
REMARK   69  A    between atoms: _162  and  _163
REMARK   70  A    between atoms: _166  and  _168
REMARK   71  A    between atoms: _168  and  _169
REMARK   72  A    between atoms: _168  and  _171
REMARK   73  A    between atoms: _171  and  _172
REMARK   74  A    between atoms: _172  and  _173
REMARK   75  A    between atoms: _176  and  _178
REMARK   76  A    between atoms: _178  and  _179
REMARK   77  A    between atoms: _178  and  _181
REMARK   78  A    between atoms: _181  and  _182
REMARK   79  A    between atoms: _182  and  _183
REMARK   80  A    between atoms: _185  and  _187
REMARK   81  A    between atoms: _187  and  _188
REMARK   82  A    between atoms: _190  and  _192
REMARK   83  A    between atoms: _192  and  _193
REMARK   84  A    between atoms: _192  and  _195
REMARK   85  A    between atoms: _195  and  _196
REMARK   86  A    between atoms: _196  and  _197
REMARK   87  A    between atoms: _197  and  _198
REMARK   88  A    between atoms: _207  and  _209
REMARK   89  A    between atoms: _209  and  _210
REMARK   90  A    between atoms: _209  and  _212
REMARK   91  A    between atoms: _212  and  _213
REMARK   92  A    between atoms: _218  and  _219
REMARK   93  A    between atoms: _221  and  _223
REMARK   94  A    between atoms: _223  and  _224
REMARK   95  A    between atoms: _223  and  _226
REMARK   96  A    between atoms: _226  and  _227
REMARK   97  A    between atoms: _232  and  _234
REMARK   98  A    between atoms: _234  and  _235
REMARK   99  A    between atoms: _234  and  _237
REMARK  100  A    between atoms: _237  and  _238
REMARK  101  A    between atoms: _244  and  _245
REMARK  102  A    between atoms: _250  and  _252
REMARK  103  A    between atoms: _252  and  _253
REMARK  104  A    between atoms: _252  and  _255
REMARK  105  A    between atoms: _255  and  _256
REMARK  106  A    between atoms: _256  and  _257
REMARK  107  A    between atoms: _260  and  _262
REMARK  108  A    between atoms: _262  and  _263
REMARK  109  A    between atoms: _262  and  _265
REMARK  110  A    between atoms: _265  and  _266
REMARK  111  A    between atoms: _272  and  _274
REMARK  112  A    between atoms: _274  and  _275
REMARK  113  A    between atoms: _274  and  _277
REMARK  114  A    between atoms: _277  and  _278
REMARK  115  A    between atoms: _281  and  _283
REMARK  116  A    between atoms: _283  and  _284
REMARK  117  A    between atoms: _283  and  _286
REMARK  118  A    between atoms: _286  and  _287
REMARK  119  A    between atoms: _287  and  _288
REMARK  120  A    between atoms: _290  and  _292
REMARK  121  A    between atoms: _292  and  _293
REMARK  122  A    between atoms: _292  and  _295
REMARK  123  A    between atoms: _295  and  _296
REMARK  124  A    between atoms: _299  and  _301
REMARK  125  A    between atoms: _301  and  _302
REMARK  126  A    between atoms: _301  and  _304
REMARK  127  A    between atoms: _304  and  _305
REMARK  128  A    between atoms: _305  and  _306
REMARK  129  A    between atoms: _309  and  _311
REMARK  130  A    between atoms: _311  and  _312
REMARK  131  A    between atoms: _311  and  _314
REMARK  132  A    between atoms: _314  and  _315
REMARK  133  A    between atoms: _325  and  _327
REMARK  134  A    between atoms: _327  and  _328
REMARK  135  A    between atoms: _327  and  _330
REMARK  136  A    between atoms: _330  and  _331
REMARK  137  A    between atoms: _336  and  _337
REMARK  138  A    between atoms: _339  and  _341
REMARK  139  A    between atoms: _341  and  _342
REMARK  140  A    between atoms: _341  and  _344
REMARK  141  A    between atoms: _344  and  _345
REMARK  142  A    between atoms: _348  and  _350
REMARK  143  A    between atoms: _350  and  _351
REMARK  144  A    between atoms: _350  and  _353
REMARK  145  A    between atoms: _353  and  _354
REMARK  146  A    between atoms: _356  and  _358
REMARK  147  A    between atoms: _358  and  _359
REMARK  148  A    between atoms: _358  and  _361
REMARK  149  A    between atoms: _361  and  _362
REMARK  150  A    between atoms: _365  and  _367
REMARK  151  A    between atoms: _367  and  _368
REMARK  152  A    between atoms: _371  and  _373
REMARK  153  A    between atoms: _373  and  _374
REMARK  154  A    between atoms: _373  and  _376
REMARK  155  A    between atoms: _376  and  _377
REMARK  156  A    between atoms: _377  and  _378
REMARK  157  A    between atoms: _381  and  _383
REMARK  158  A    between atoms: _383  and  _384
REMARK  159  A    between atoms: _383  and  _386
REMARK  160  A    between atoms: _386  and  _387
REMARK  161  A    between atoms: _387  and  _388
REMARK  162  A    between atoms: _388  and  _389
REMARK  163  A    between atoms: _398  and  _400
REMARK  164  A    between atoms: _400  and  _401
REMARK  165  A    between atoms: _400  and  _403
REMARK  166  A    between atoms: _403  and  _404
REMARK  167  A    between atoms: _410  and  _412
REMARK  168  A    between atoms: _412  and  _413
REMARK  169  A    between atoms: _412  and  _415
REMARK  170  A    between atoms: _415  and  _416
REMARK  171  A    between atoms: _416  and  _417
REMARK  172  A    between atoms: _420  and  _422
REMARK  173  A    between atoms: _422  and  _423
REMARK  174  A    between atoms: _422  and  _425
REMARK  175  A    between atoms: _428  and  _430
REMARK  176  A    between atoms: _430  and  _431
REMARK  177  A    between atoms: _430  and  _433
REMARK  178  A    between atoms: _433  and  _434
REMARK  179  A    between atoms: _439  and  _440
REMARK  180  A    between atoms: _442  and  _444
REMARK  181  A    between atoms: _444  and  _445
REMARK  182  A    between atoms: _444  and  _447
REMARK  183  A    between atoms: _447  and  _448
REMARK  184  A    between atoms: _451  and  _453
REMARK  185  A    between atoms: _453  and  _454
REMARK  186  A    between atoms: _453  and  _456
REMARK  187  A    between atoms: _456  and  _457
REMARK  188  A    between atoms: _457  and  _458
REMARK  189  A    between atoms: _461  and  _463
REMARK  190  A    between atoms: _463  and  _464
REMARK  191  A    between atoms: _463  and  _466
REMARK  192  A    between atoms: _466  and  _467
REMARK  193  A    between atoms: _470  and  _472
REMARK  194  A    between atoms: _472  and  _473
REMARK  195  A    between atoms: _476  and  _478
REMARK  196  A    between atoms: _478  and  _479
REMARK  197  A    between atoms: _478  and  _481
REMARK  198  A    between atoms: _481  and  _482
REMARK  199  A    between atoms: _487  and  _489
REMARK  200  A    between atoms: _489  and  _490
REMARK  201  A    between atoms: _492  and  _494
REMARK  202  A    between atoms: _494  and  _495
REMARK  203  A    between atoms: _494  and  _497
REMARK  204  A    between atoms: _497  and  _498
REMARK  205  A    between atoms: _504  and  _506
REMARK  206  A    between atoms: _506  and  _507
REMARK  207  A    between atoms: _506  and  _509
REMARK  208  A    between atoms: _509  and  _510
REMARK  209  A    between atoms: _515  and  _517
REMARK  210  A    between atoms: _517  and  _518
REMARK  211  A    between atoms: _517  and  _520
REMARK  212  A    between atoms: _520  and  _521
REMARK  213  A    between atoms: _521  and  _522
REMARK  214  A    between atoms: _525  and  _527
REMARK  215  A    between atoms: _527  and  _528
REMARK  216  A    between atoms: _527  and  _530
REMARK  217  A    between atoms: _530  and  _531
REMARK  218  A    between atoms: _534  and  _536
REMARK  219  A    between atoms: _536  and  _537
REMARK  220  A    between atoms: _536  and  _539
REMARK  221  A    between atoms: _541  and  _543
REMARK  222  A    between atoms: _543  and  _544
REMARK  223  A    between atoms: _543  and  _546
REMARK  224  A    between atoms: _546  and  _547
REMARK  225  A    between atoms: _549  and  _551
REMARK  226  A    between atoms: _551  and  _552
REMARK  227  A    between atoms: _554  and  _556
REMARK  228  A    between atoms: _556  and  _557
REMARK  229  A    between atoms: _556  and  _559
REMARK  230  A    between atoms: _562  and  _564
REMARK  231  A    between atoms: _564  and  _565
REMARK  232  A    between atoms: _568  and  _570
REMARK  233  A    between atoms: _570  and  _571
REMARK  234  A    between atoms: _570  and  _573
REMARK  235  A    between atoms: _573  and  _574
REMARK  236  A    between atoms: _577  and  _579
REMARK  237  A    between atoms: _579  and  _580
REMARK  238  A    between atoms: _582  and  _584
REMARK  239  A    between atoms: _584  and  _585
REMARK  240  A    between atoms: _584  and  _587
REMARK  241  A    between atoms: _590  and  _592
REMARK  242  A    between atoms: _592  and  _593
REMARK  243  A    between atoms: _592  and  _595
REMARK  244  A    between atoms: _595  and  _596
REMARK  245  A    between atoms: _599  and  _601
REMARK  246  A    between atoms: _601  and  _602
REMARK  247  A    between atoms: _601  and  _604
REMARK  248  A    between atoms: _604  and  _605
REMARK  249  A    between atoms: _605  and  _606
REMARK  250  A    between atoms: _606  and  _607
REMARK  251  A    between atoms: _616  and  _618
REMARK  252  A    between atoms: _618  and  _619
REMARK  253  A    between atoms: _618  and  _621
REMARK  254  A    between atoms: _621  and  _622
REMARK  255  A    between atoms: _625  and  _627
REMARK  256  A    between atoms: _627  and  _628
REMARK  257  A    between atoms: _627  and  _630
REMARK  258  A    between atoms: _630  and  _631
REMARK  259  A    between atoms: _634  and  _636
REMARK  260  A    between atoms: _636  and  _637
REMARK  261  A    between atoms: _636  and  _639
REMARK  262  A    between atoms: _639  and  _640
REMARK                            x       y       z     vdW  Elec       q    Type
REMARK                         _______ _______ _______ _____ _____    ______ ____
ROOT
ATOM      1  O   HOH     1      -4.102  -9.558  -2.808  0.00  0.00    +0.000 OA
ENDROOT
TORSDOF 0
REMARK  Name = ../refined-set-2016/3a5y/3a5y_pocket.pdb
REMARK  262 active torsions:
REMARK  status: ('A' for Active; 'I' for Inactive)
REMARK    1  A    between atoms: _1  and  _3
REMARK    2  A    between atoms: _3  and  _4
REMARK    3  A    between atoms: _3  and  _6
REMARK    4  A    between atoms: _9  and  _11
REMARK    5  A    between atoms: _11  and  _12
REMARK    6  A    between atoms: _11  and  _14
REMARK    7  A    between atoms: _14  and  _15
REMARK    8  A    between atoms: _18  and  _20
REMARK    9  A    between atoms: _20  and  _21
REMARK   10  A    between atoms: _20  and  _23
REMARK   11  A    between atoms: _23  and  _24
REMARK   12  A    between atoms: _29  and  _31
REMARK   13  A    between atoms: _31  and  _32
REMARK   14  A    between atoms: _31  and  _34
REMARK   15  A    between atoms: _34  and  _35
REMARK   16  A    between atoms: _38  and  _40
REMARK   17  A    between atoms: _40  and  _41
REMARK   18  A    between atoms: _40  and  _43
REMARK   19  A    between atoms: _43  and  _44
REMARK   20  A    between atoms: _47  and  _49
REMARK   21  A    between atoms: _49  and  _50
REMARK   22  A    between atoms: _49  and  _52
REMARK   23  A    between atoms: _52  and  _53
REMARK   24  A    between atoms: _56  and  _57
REMARK   25  A    between atoms: _62  and  _64
REMARK   26  A    between atoms: _64  and  _65
REMARK   27  A    between atoms: _64  and  _67
REMARK   28  A    between atoms: _67  and  _68
REMARK   29  A    between atoms: _68  and  _69
REMARK   30  A    between atoms: _72  and  _74
REMARK   31  A    between atoms: _74  and  _75
REMARK   32  A    between atoms: _74  and  _77
REMARK   33  A    between atoms: _77  and  _78
REMARK   34  A    between atoms: _83  and  _84
REMARK   35  A    between atoms: _86  and  _88
REMARK   36  A    between atoms: _88  and  _89
REMARK   37  A    between atoms: _88  and  _91
REMARK   38  A    between atoms: _91  and  _92
REMARK   39  A    between atoms: _92  and  _93
REMARK   40  A    between atoms: _95  and  _97
REMARK   41  A    between atoms: _97  and  _98
REMARK   42  A    between atoms: _97  and  _100
REMARK   43  A    between atoms: _100  and  _101
REMARK   44  A    between atoms: _101  and  _102
REMARK   45  A    between atoms: _102  and  _103
REMARK   46  A    between atoms: _103  and  _104
REMARK   47  A    between atoms: _108  and  _110
REMARK   48  A    between atoms: _110  and  _111
REMARK   49  A    between atoms: _110  and  _113
REMARK   50  A    between atoms: _113  and  _114
REMARK   51  A    between atoms: _116  and  _118
REMARK   52  A    between atoms: _118  and  _119
REMARK   53  A    between atoms: _118  and  _121
REMARK   54  A    between atoms: _121  and  _122
REMARK   55  A    between atoms: _128  and  _130
REMARK   56  A    between atoms: _130  and  _131
REMARK   57  A    between atoms: _130  and  _133
REMARK   58  A    between atoms: _133  and  _134
REMARK   59  A    between atoms: _134  and  _135
REMARK   60  A    between atoms: _135  and  _136
REMARK   61  A    between atoms: _145  and  _147
REMARK   62  A    between atoms: _147  and  _148
REMARK   63  A    between atoms: _147  and  _150
REMARK   64  A    between atoms: _150  and  _151
REMARK   65  A    between atoms: _156  and  _158
REMARK   66  A    between atoms: _158  and  _159
REMARK   67  A    between atoms: _158  and  _161
REMARK   68  A    between atoms: _161  and  _162
REMARK   69  A    between atoms: _162  and  _163
REMARK   70  A    between atoms: _166  and  _168
REMARK   71  A    between atoms: _168  and  _169
REMARK   72  A    between atoms: _168  and  _171
REMARK   73  A    between atoms: _171  and  _172
REMARK   74  A    between atoms: _172  and  _173
REMARK   75  A    between atoms: _176  and  _178
REMARK   76  A    between atoms: _178  and  _179
REMARK   77  A    between atoms: _178  and  _181
REMARK   78  A    between atoms: _181  and  _182
REMARK   79  A    between atoms: _182  and  _183
REMARK   80  A    between atoms: _185  and  _187
REMARK   81  A    between atoms: _187  and  _188
REMARK   82  A    between atoms: _190  and  _192
REMARK   83  A    between atoms: _192  and  _193
REMARK   84  A    between atoms: _192  and  _195
REMARK   85  A    between atoms: _195  and  _196
REMARK   86  A    between atoms: _196  and  _197
REMARK   87  A    between atoms: _197  and  _198
REMARK   88  A    between atoms: _207  and  _209
REMARK   89  A    between atoms: _209  and  _210
REMARK   90  A    between atoms: _209  and  _212
REMARK   91  A    between atoms: _212  and  _213
REMARK   92  A    between atoms: _218  and  _219
REMARK   93  A    between atoms: _221  and  _223
REMARK   94  A    between atoms: _223  and  _224
REMARK   95  A    between atoms: _223  and  _226
REMARK   96  A    between atoms: _226  and  _227
REMARK   97  A    between atoms: _232  and  _234
REMARK   98  A    between atoms: _234  and  _235
REMARK   99  A    between atoms: _234  and  _237
REMARK  100  A    between atoms: _237  and  _238
REMARK  101  A    between atoms: _244  and  _245
REMARK  102  A    between atoms: _250  and  _252
REMARK  103  A    between atoms: _252  and  _253
REMARK  104  A    between atoms: _252  and  _255
REMARK  105  A    between atoms: _255  and  _256
REMARK  106  A    between atoms: _256  and  _257
REMARK  107  A    between atoms: _260  and  _262
REMARK  108  A    between atoms: _262  and  _263
REMARK  109  A    between atoms: _262  and  _265
REMARK  110  A    between atoms: _265  and  _266
REMARK  111  A    between atoms: _272  and  _274
REMARK  112  A    between atoms: _274  and  _275
REMARK  113  A    between atoms: _274  and  _277
REMARK  114  A    between atoms: _277  and  _278
REMARK  115  A    between atoms: _281  and  _283
REMARK  116  A    between atoms: _283  and  _284
REMARK  117  A    between atoms: _283  and  _286
REMARK  118  A    between atoms: _286  and  _287
REMARK  119  A    between atoms: _287  and  _288
REMARK  120  A    between atoms: _290  and  _292
REMARK  121  A    between atoms: _292  and  _293
REMARK  122  A    between atoms: _292  and  _295
REMARK  123  A    between atoms: _295  and  _296
REMARK  124  A    between atoms: _299  and  _301
REMARK  125  A    between atoms: _301  and  _302
REMARK  126  A    between atoms: _301  and  _304
REMARK  127  A    between atoms: _304  and  _305
REMARK  128  A    between atoms: _305  and  _306
REMARK  129  A    between atoms: _309  and  _311
REMARK  130  A    between atoms: _311  and  _312
REMARK  131  A    between atoms: _311  and  _314
REMARK  132  A    between atoms: _314  and  _315
REMARK  133  A    between atoms: _325  and  _327
REMARK  134  A    between atoms: _327  and  _328
REMARK  135  A    between atoms: _327  and  _330
REMARK  136  A    between atoms: _330  and  _331
REMARK  137  A    between atoms: _336  and  _337
REMARK  138  A    between atoms: _339  and  _341
REMARK  139  A    between atoms: _341  and  _342
REMARK  140  A    between atoms: _341  and  _344
REMARK  141  A    between atoms: _344  and  _345
REMARK  142  A    between atoms: _348  and  _350
REMARK  143  A    between atoms: _350  and  _351
REMARK  144  A    between atoms: _350  and  _353
REMARK  145  A    between atoms: _353  and  _354
REMARK  146  A    between atoms: _356  and  _358
REMARK  147  A    between atoms: _358  and  _359
REMARK  148  A    between atoms: _358  and  _361
REMARK  149  A    between atoms: _361  and  _362
REMARK  150  A    between atoms: _365  and  _367
REMARK  151  A    between atoms: _367  and  _368
REMARK  152  A    between atoms: _371  and  _373
REMARK  153  A    between atoms: _373  and  _374
REMARK  154  A    between atoms: _373  and  _376
REMARK  155  A    between atoms: _376  and  _377
REMARK  156  A    between atoms: _377  and  _378
REMARK  157  A    between atoms: _381  and  _383
REMARK  158  A    between atoms: _383  and  _384
REMARK  159  A    between atoms: _383  and  _386
REMARK  160  A    between atoms: _386  and  _387
REMARK  161  A    between atoms: _387  and  _388
REMARK  162  A    between atoms: _388  and  _389
REMARK  163  A    between atoms: _398  and  _400
REMARK  164  A    between atoms: _400  and  _401
REMARK  165  A    between atoms: _400  and  _403
REMARK  166  A    between atoms: _403  and  _404
REMARK  167  A    between atoms: _410  and  _412
REMARK  168  A    between atoms: _412  and  _413
REMARK  169  A    between atoms: _412  and  _415
REMARK  170  A    between atoms: _415  and  _416
REMARK  171  A    between atoms: _416  and  _417
REMARK  172  A    between atoms: _420  and  _422
REMARK  173  A    between atoms: _422  and  _423
REMARK  174  A    between atoms: _422  and  _425
REMARK  175  A    between atoms: _428  and  _430
REMARK  176  A    between atoms: _430  and  _431
REMARK  177  A    between atoms: _430  and  _433
REMARK  178  A    between atoms: _433  and  _434
REMARK  179  A    between atoms: _439  and  _440
REMARK  180  A    between atoms: _442  and  _444
REMARK  181  A    between atoms: _444  and  _445
REMARK  182  A    between atoms: _444  and  _447
REMARK  183  A    between atoms: _447  and  _448
REMARK  184  A    between atoms: _451  and  _453
REMARK  185  A    between atoms: _453  and  _454
REMARK  186  A    between atoms: _453  and  _456
REMARK  187  A    between atoms: _456  and  _457
REMARK  188  A    between atoms: _457  and  _458
REMARK  189  A    between atoms: _461  and  _463
REMARK  190  A    between atoms: _463  and  _464
REMARK  191  A    between atoms: _463  and  _466
REMARK  192  A    between atoms: _466  and  _467
REMARK  193  A    between atoms: _470  and  _472
REMARK  194  A    between atoms: _472  and  _473
REMARK  195  A    between atoms: _476  and  _478
REMARK  196  A    between atoms: _478  and  _479
REMARK  197  A    between atoms: _478  and  _481
REMARK  198  A    between atoms: _481  and  _482
REMARK  199  A    between atoms: _487  and  _489
REMARK  200  A    between atoms: _489  and  _490
REMARK  201  A    between atoms: _492  and  _494
REMARK  202  A    between atoms: _494  and  _495
REMARK  203  A    between atoms: _494  and  _497
REMARK  204  A    between atoms: _497  and  _498
REMARK  205  A    between atoms: _504  and  _506
REMARK  206  A    between atoms: _506  and  _507
REMARK  207  A    between atoms: _506  and  _509
REMARK  208  A    between atoms: _509  and  _510
REMARK  209  A    between atoms: _515  and  _517
REMARK  210  A    between atoms: _517  and  _518
REMARK  211  A    between atoms: _517  and  _520
REMARK  212  A    between atoms: _520  and  _521
REMARK  213  A    between atoms: _521  and  _522
REMARK  214  A    between atoms: _525  and  _527
REMARK  215  A    between atoms: _527  and  _528
REMARK  216  A    between atoms: _527  and  _530
REMARK  217  A    between atoms: _530  and  _531
REMARK  218  A    between atoms: _534  and  _536
REMARK  219  A    between atoms: _536  and  _537
REMARK  220  A    between atoms: _536  and  _539
REMARK  221  A    between atoms: _541  and  _543
REMARK  222  A    between atoms: _543  and  _544
REMARK  223  A    between atoms: _543  and  _546
REMARK  224  A    between atoms: _546  and  _547
REMARK  225  A    between atoms: _549  and  _551
REMARK  226  A    between atoms: _551  and  _552
REMARK  227  A    between atoms: _554  and  _556
REMARK  228  A    between atoms: _556  and  _557
REMARK  229  A    between atoms: _556  and  _559
REMARK  230  A    between atoms: _562  and  _564
REMARK  231  A    between atoms: _564  and  _565
REMARK  232  A    between atoms: _568  and  _570
REMARK  233  A    between atoms: _570  and  _571
REMARK  234  A    between atoms: _570  and  _573
REMARK  235  A    between atoms: _573  and  _574
REMARK  236  A    between atoms: _577  and  _579
REMARK  237  A    between atoms: _579  and  _580
REMARK  238  A    between atoms: _582  and  _584
REMARK  239  A    between atoms: _584  and  _585
REMARK  240  A    between atoms: _584  and  _587
REMARK  241  A    between atoms: _590  and  _592
REMARK  242  A    between atoms: _592  and  _593
REMARK  243  A    between atoms: _592  and  _595
REMARK  244  A    between atoms: _595  and  _596
REMARK  245  A    between atoms: _599  and  _601
REMARK  246  A    between atoms: _601  and  _602
REMARK  247  A    between atoms: _601  and  _604
REMARK  248  A    between atoms: _604  and  _605
REMARK  249  A    between atoms: _605  and  _606
REMARK  250  A    between atoms: _606  and  _607
REMARK  251  A    between atoms: _616  and  _618
REMARK  252  A    between atoms: _618  and  _619
REMARK  253  A    between atoms: _618  and  _621
REMARK  254  A    between atoms: _621  and  _622
REMARK  255  A    between atoms: _625  and  _627
REMARK  256  A    between atoms: _627  and  _628
REMARK  257  A    between atoms: _627  and  _630
REMARK  258  A    between atoms: _630  and  _631
REMARK  259  A    between atoms: _634  and  _636
REMARK  260  A    between atoms: _636  and  _637
REMARK  261  A    between atoms: _636  and  _639
REMARK  262  A    between atoms: _639  and  _640
REMARK                            x       y       z     vdW  Elec       q    Type
REMARK                         _______ _______ _______ _____ _____    ______ ____
ROOT
ATOM      1  O   HOH     1      10.818  -5.908 -11.148  0.00  0.00    +0.000 OA
ENDROOT
TORSDOF 0
