REMARK  Name = ../refined-set-2016/4tln/4tln_pocket.pdb
REMARK  129 active torsions:
REMARK  status: ('A' for Active; 'I' for Inactive)
REMARK    1  A    between atoms: _1  and  _3
REMARK    2  A    between atoms: _3  and  _4
REMARK    3  A    between atoms: _3  and  _6
REMARK    4  A    between atoms: _6  and  _7
REMARK    5  A    between atoms: _12  and  _13
REMARK    6  A    between atoms: _15  and  _17
REMARK    7  A    between atoms: _17  and  _18
REMARK    8  A    between atoms: _17  and  _20
REMARK    9  A    between atoms: _20  and  _21
REMARK   10  A    between atoms: _26  and  _28
REMARK   11  A    between atoms: _28  and  _29
REMARK   12  A    between atoms: _28  and  _31
REMARK   13  A    between atoms: _31  and  _32
REMARK   14  A    between atoms: _37  and  _39
REMARK   15  A    between atoms: _39  and  _40
REMARK   16  A    between atoms: _43  and  _45
REMARK   17  A    between atoms: _45  and  _46
REMARK   18  A    between atoms: _45  and  _48
REMARK   19  A    between atoms: _48  and  _49
REMARK   20  A    between atoms: _55  and  _57
REMARK   21  A    between atoms: _57  and  _58
REMARK   22  A    between atoms: _57  and  _60
REMARK   23  A    between atoms: _60  and  _61
REMARK   24  A    between atoms: _71  and  _73
REMARK   25  A    between atoms: _73  and  _74
REMARK   26  A    between atoms: _73  and  _76
REMARK   27  A    between atoms: _76  and  _77
REMARK   28  A    between atoms: _82  and  _84
REMARK   29  A    between atoms: _84  and  _85
REMARK   30  A    between atoms: _84  and  _87
REMARK   31  A    between atoms: _90  and  _92
REMARK   32  A    between atoms: _92  and  _93
REMARK   33  A    between atoms: _92  and  _95
REMARK   34  A    between atoms: _95  and  _96
REMARK   35  A    between atoms: _101  and  _102
REMARK   36  A    between atoms: _104  and  _106
REMARK   37  A    between atoms: _106  and  _107
REMARK   38  A    between atoms: _106  and  _109
REMARK   39  A    between atoms: _109  and  _110
REMARK   40  A    between atoms: _116  and  _118
REMARK   41  A    between atoms: _118  and  _119
REMARK   42  A    between atoms: _118  and  _121
REMARK   43  A    between atoms: _121  and  _122
REMARK   44  A    between atoms: _125  and  _127
REMARK   45  A    between atoms: _127  and  _128
REMARK   46  A    between atoms: _127  and  _130
REMARK   47  A    between atoms: _130  and  _131
REMARK   48  A    between atoms: _134  and  _136
REMARK   49  A    between atoms: _136  and  _137
REMARK   50  A    between atoms: _136  and  _139
REMARK   51  A    between atoms: _142  and  _144
REMARK   52  A    between atoms: _144  and  _145
REMARK   53  A    between atoms: _144  and  _147
REMARK   54  A    between atoms: _150  and  _152
REMARK   55  A    between atoms: _152  and  _153
REMARK   56  A    between atoms: _152  and  _155
REMARK   57  A    between atoms: _155  and  _156
REMARK   58  A    between atoms: _160  and  ZN_327
REMARK   59  A    between atoms: _161  and  _163
REMARK   60  A    between atoms: _163  and  _164
REMARK   61  A    between atoms: _163  and  _166
REMARK   62  A    between atoms: _166  and  _167
REMARK   63  A    between atoms: _167  and  _168
REMARK   64  A    between atoms: _171  and  _173
REMARK   65  A    between atoms: _173  and  _174
REMARK   66  A    between atoms: _173  and  _176
REMARK   67  A    between atoms: _176  and  _177
REMARK   68  A    between atoms: _180  and  _182
REMARK   69  A    between atoms: _182  and  _183
REMARK   70  A    between atoms: _182  and  _185
REMARK   71  A    between atoms: _185  and  _186
REMARK   72  A    between atoms: _190  and  ZN_327
REMARK   73  A    between atoms: _191  and  _193
REMARK   74  A    between atoms: _193  and  _194
REMARK   75  A    between atoms: _193  and  _196
REMARK   76  A    between atoms: _196  and  _197
REMARK   77  A    between atoms: _202  and  _203
REMARK   78  A    between atoms: _205  and  _207
REMARK   79  A    between atoms: _207  and  _208
REMARK   80  A    between atoms: _207  and  _210
REMARK   81  A    between atoms: _210  and  _211
REMARK   82  A    between atoms: _216  and  _218
REMARK   83  A    between atoms: _218  and  _219
REMARK   84  A    between atoms: _218  and  _221
REMARK   85  A    between atoms: _221  and  _222
REMARK   86  A    between atoms: _222  and  _223
REMARK   87  A    between atoms: _223  and  _224
REMARK   88  A    between atoms: _224  and  ZN_327
REMARK   89  A    between atoms: _226  and  _228
REMARK   90  A    between atoms: _228  and  _229
REMARK   91  A    between atoms: _228  and  _231
REMARK   92  A    between atoms: _231  and  _232
REMARK   93  A    between atoms: _234  and  _236
REMARK   94  A    between atoms: _236  and  _237
REMARK   95  A    between atoms: _236  and  _239
REMARK   96  A    between atoms: _239  and  _240
REMARK   97  A    between atoms: _243  and  _245
REMARK   98  A    between atoms: _245  and  _246
REMARK   99  A    between atoms: _245  and  _248
REMARK  100  A    between atoms: _248  and  _249
REMARK  101  A    between atoms: _252  and  _254
REMARK  102  A    between atoms: _254  and  _255
REMARK  103  A    between atoms: _257  and  _259
REMARK  104  A    between atoms: _259  and  _260
REMARK  105  A    between atoms: _259  and  _262
REMARK  106  A    between atoms: _265  and  _267
REMARK  107  A    between atoms: _267  and  _268
REMARK  108  A    between atoms: _267  and  _270
REMARK  109  A    between atoms: _270  and  _271
REMARK  110  A    between atoms: _274  and  _276
REMARK  111  A    between atoms: _276  and  _277
REMARK  112  A    between atoms: _276  and  _279
REMARK  113  A    between atoms: _280  and  _281
REMARK  114  A    between atoms: _281  and  _282
REMARK  115  A    between atoms: _291  and  _293
REMARK  116  A    between atoms: _293  and  _294
REMARK  117  A    between atoms: _293  and  _296
REMARK  118  A    between atoms: _296  and  _297
REMARK  119  A    between atoms: _300  and  _302
REMARK  120  A    between atoms: _302  and  _303
REMARK  121  A    between atoms: _302  and  _305
REMARK  122  A    between atoms: _308  and  _310
REMARK  123  A    between atoms: _310  and  _311
REMARK  124  A    between atoms: _310  and  _313
REMARK  125  A    between atoms: _313  and  _314
REMARK  126  A    between atoms: _319  and  _321
REMARK  127  A    between atoms: _321  and  _322
REMARK  128  A    between atoms: _321  and  _324
REMARK  129  A    between atoms: _324  and  _325
REMARK                            x       y       z     vdW  Elec       q    Type
REMARK                         _______ _______ _______ _____ _____    ______ ____
ROOT
ATOM      1  C   ALA A   4      48.293  20.064  -3.198  0.00  0.00    +0.241 C 
ATOM      2  O   ALA A   4      49.162  19.254  -3.442  0.00  0.00    -0.273 OA
ATOM      3  N   PHE A   5      47.920  20.929  -4.069  0.00  0.00    -0.297 N 
ATOM      4  H   PHE A   5      47.226  21.548  -3.603  0.00  0.00    +0.150 HD
ENDROOT
BRANCH   1   5
ATOM      5  CA  ALA A   4      47.818  19.910  -1.804  0.00  0.00    +0.149 C 
ATOM      6  CB  ALA A   4      48.652  20.687  -0.811  0.00  0.00    +0.031 C 
BRANCH   5   9
ATOM      7  C   ASN A   3      47.322  17.769  -0.736  0.00  0.00    +0.241 C 
ATOM      8  O   ASN A   3      46.312  18.122  -0.167  0.00  0.00    -0.273 OA
ATOM      9  N   ALA A   4      48.082  18.529  -1.539  0.00  0.00    -0.297 N 
ATOM     10  H   ALA A   4      48.908  18.090  -1.994  0.00  0.00    +0.150 HD
BRANCH   7  11
ATOM     11  CA  ASN A   3      47.951  16.368  -0.703  0.00  0.00    +0.158 C 
BRANCH  11  13
ATOM     12  C   ASN A   2      47.497  14.300   0.437  0.00  0.00    +0.241 C 
ATOM     13  N   ASN A   3      47.248  15.538   0.283  0.00  0.00    -0.297 N 
ATOM     14  H   ASN A   3      46.518  15.979   0.879  0.00  0.00    +0.150 HD
ATOM     15  O   ASN A   2      48.372  13.776  -0.179  0.00  0.00    -0.273 OA
BRANCH  12  16
ATOM     16  CA  ASN A   2      46.728  13.559   1.467  0.00  0.00    +0.158 C 
BRANCH  16  19
ATOM     17  C   TYR A   1      44.456  14.288   1.656  0.00  0.00    +0.239 C 
ATOM     18  O   TYR A   1      44.816  15.301   2.286  0.00  0.00    -0.274 OA
ATOM     19  N   ASN A   2      45.379  13.383   1.208  0.00  0.00    -0.297 N 
ATOM     20  H   ASN A   2      45.064  12.553   0.666  0.00  0.00    +0.150 HD
BRANCH  17  21
ATOM     21  CA  TYR A   1      43.050  13.963   1.297  0.00  0.00    +0.149 C 
BRANCH  21  22
ATOM     22  N   TYR A   1      42.273  13.780   2.541  0.00  0.00    -0.238 NA
ATOM     23  H   TYR A   1      41.737  14.576   2.943  0.00  0.00    +0.142 HD
ENDBRANCH  21  22
BRANCH  21  24
ATOM     24  CB  TYR A   1      42.314  15.017   0.474  0.00  0.00    +0.053 C 
BRANCH  24  25
ATOM     25  CG  TYR A   1      42.929  15.122  -0.844  0.00  0.00    -0.020 A 
ATOM     26  CD2 TYR A   1      43.641  16.228  -1.159  0.00  0.00    -0.001 A 
ATOM     27  CE2 TYR A   1      44.299  16.341  -2.379  0.00  0.00    +0.036 A 
ATOM     28  CZ  TYR A   1      44.125  15.294  -3.247  0.00  0.00    +0.134 A 
ATOM     29  CE1 TYR A   1      43.387  14.141  -3.016  0.00  0.00    +0.036 A 
ATOM     30  CD1 TYR A   1      42.774  14.100  -1.765  0.00  0.00    -0.001 A 
BRANCH  28  31
ATOM     31  OH  TYR A   1      44.741  15.450  -4.415  0.00  0.00    -0.506 OA
ATOM     32  HH  TYR A   1      44.570  14.659  -4.985  0.00  0.00    +0.292 HD
ENDBRANCH  28  31
ENDBRANCH  24  25
ENDBRANCH  21  24
ENDBRANCH  17  21
ENDBRANCH  16  19
BRANCH  16  33
ATOM     33  CB  ASN A   2      47.406  12.173   1.745  0.00  0.00    +0.114 C 
BRANCH  33  34
ATOM     34  CG  ASN A   2      47.142  11.494   3.067  0.00  0.00    +0.222 C 
ATOM     35  OD1 ASN A   2      46.968  12.043   4.148  0.00  0.00    -0.275 OA
ATOM     36  ND2 ASN A   2      47.079  10.188   3.071  0.00  0.00    -0.329 N 
ATOM     37 HD21 ASN A   2      46.890   9.679   3.958  0.00  0.00    +0.145 HD
ATOM     38 HD22 ASN A   2      47.217   9.658   2.187  0.00  0.00    +0.145 HD
ENDBRANCH  33  34
ENDBRANCH  16  33
ENDBRANCH  12  16
ENDBRANCH  11  13
BRANCH  11  39
ATOM     39  CB  ASN A   3      47.780  15.569  -1.966  0.00  0.00    +0.114 C 
BRANCH  39  40
ATOM     40  CG  ASN A   3      48.831  15.825  -3.090  0.00  0.00    +0.222 C 
ATOM     41  OD1 ASN A   3      49.884  16.515  -3.093  0.00  0.00    -0.275 OA
ATOM     42  ND2 ASN A   3      48.672  15.175  -4.184  0.00  0.00    -0.329 N 
ATOM     43 HD21 ASN A   3      47.839  14.565  -4.310  0.00  0.00    +0.145 HD
ATOM     44 HD22 ASN A   3      49.376  15.258  -4.945  0.00  0.00    +0.145 HD
ENDBRANCH  39  40
ENDBRANCH  11  39
ENDBRANCH   7  11
ENDBRANCH   5   9
ENDBRANCH   1   5
BRANCH   3  45
ATOM     45  CA  PHE A   5      48.056  21.383  -5.372  0.00  0.00    +0.153 C 
BRANCH  45  46
ATOM     46  C   PHE A   5      47.516  22.776  -5.708  0.00  0.00    +0.241 C 
ATOM     47  O   PHE A   5      46.815  23.457  -5.084  0.00  0.00    -0.273 OA
ATOM     48  N   TRP A   6      48.009  23.191  -6.883  0.00  0.00    -0.297 N 
ATOM     49  H   TRP A   6      48.665  22.519  -7.329  0.00  0.00    +0.150 HD
BRANCH  48  50
ATOM     50  CA  TRP A   6      47.789  24.446  -7.672  0.00  0.00    +0.153 C 
BRANCH  50  51
ATOM     51  C   TRP A   6      46.969  23.871  -8.760  0.00  0.00    +0.241 C 
ATOM     52  N   ASN A   7      45.751  24.165  -9.116  0.00  0.00    -0.302 N 
ATOM     53  H   ASN A   7      45.292  24.910  -8.554  0.00  0.00    +0.150 HD
ATOM     54  O   TRP A   6      47.603  22.877  -9.306  0.00  0.00    -0.273 OA
BRANCH  52  55
ATOM     55  CA  ASN A   7      44.949  23.611 -10.170  0.00  0.00    +0.114 C 
BRANCH  55  56
ATOM     56  C   ASN A   7      44.939  24.568 -11.375  0.00  0.00    +0.202 C 
ATOM     57  O   ASN A   7      44.013  24.193 -12.199  0.00  0.00    -0.219 OA
ENDBRANCH  55  56
BRANCH  55  58
ATOM     58  CB  ASN A   7      43.488  23.248  -9.769  0.00  0.00    +0.107 C 
BRANCH  58  59
ATOM     59  CG  ASN A   7      42.535  24.460  -9.469  0.00  0.00    +0.221 C 
ATOM     60  OD1 ASN A   7      43.005  25.630  -9.303  0.00  0.00    -0.275 OA
ATOM     61  ND2 ASN A   7      41.363  24.390  -9.322  0.00  0.00    -0.329 N 
ATOM     62 HD21 ASN A   7      40.818  25.242  -9.079  0.00  0.00    +0.145 HD
ATOM     63 HD22 ASN A   7      40.878  23.477  -9.435  0.00  0.00    +0.145 HD
ENDBRANCH  58  59
ENDBRANCH  55  58
ENDBRANCH  52  55
ENDBRANCH  50  51
BRANCH  50  64
ATOM     64  CB  TRP A   6      49.058  25.223  -8.077  0.00  0.00    +0.057 C 
BRANCH  64  65
ATOM     65  CG  TRP A   6      48.693  26.227  -9.112  0.00  0.00    -0.002 A 
ATOM     66  CD2 TRP A   6      48.094  27.524  -8.900  0.00  0.00    +0.013 A 
ATOM     67  CE3 TRP A   6      47.713  28.312  -7.805  0.00  0.00    +0.001 A 
ATOM     68  CZ3 TRP A   6      47.226  29.574  -7.850  0.00  0.00    +0.000 A 
ATOM     69  CH2 TRP A   6      47.011  30.119  -9.186  0.00  0.00    +0.001 A 
ATOM     70  CZ2 TRP A   6      47.395  29.395 -10.252  0.00  0.00    +0.017 A 
ATOM     71  CE2 TRP A   6      47.948  28.126 -10.113  0.00  0.00    +0.056 A 
ATOM     72  NE1 TRP A   6      48.404  27.196 -11.114  0.00  0.00    -0.352 N 
ATOM     73  HE1 TRP A   6      48.387  27.331 -12.145  0.00  0.00    +0.166 HD
ATOM     74  CD1 TRP A   6      48.888  26.042 -10.402  0.00  0.00    +0.068 A 
ENDBRANCH  64  65
ENDBRANCH  50  64
ENDBRANCH  48  50
ENDBRANCH  45  46
BRANCH  45  75
ATOM     75  CB  PHE A   5      47.358  20.322  -6.319  0.00  0.00    +0.055 C 
BRANCH  75  76
ATOM     76  CG  PHE A   5      45.909  20.056  -6.162  0.00  0.00    -0.020 A 
ATOM     77  CD2 PHE A   5      45.447  19.120  -5.299  0.00  0.00    -0.004 A 
ATOM     78  CE2 PHE A   5      44.105  18.842  -5.151  0.00  0.00    -0.000 A 
ATOM     79  CZ  PHE A   5      43.107  19.406  -5.903  0.00  0.00    -0.000 A 
ATOM     80  CE1 PHE A   5      43.550  20.358  -6.888  0.00  0.00    -0.000 A 
ATOM     81  CD1 PHE A   5      44.911  20.678  -6.953  0.00  0.00    -0.004 A 
ENDBRANCH  75  76
ENDBRANCH  45  75
ENDBRANCH   3  45
TORSDOF 27
REMARK  Name = ../refined-set-2016/4tln/4tln_pocket.pdb
REMARK  129 active torsions:
REMARK  status: ('A' for Active; 'I' for Inactive)
REMARK    1  A    between atoms: _1  and  _3
REMARK    2  A    between atoms: _3  and  _4
REMARK    3  A    between atoms: _3  and  _6
REMARK    4  A    between atoms: _6  and  _7
REMARK    5  A    between atoms: _12  and  _13
REMARK    6  A    between atoms: _15  and  _17
REMARK    7  A    between atoms: _17  and  _18
REMARK    8  A    between atoms: _17  and  _20
REMARK    9  A    between atoms: _20  and  _21
REMARK   10  A    between atoms: _26  and  _28
REMARK   11  A    between atoms: _28  and  _29
REMARK   12  A    between atoms: _28  and  _31
REMARK   13  A    between atoms: _31  and  _32
REMARK   14  A    between atoms: _37  and  _39
REMARK   15  A    between atoms: _39  and  _40
REMARK   16  A    between atoms: _43  and  _45
REMARK   17  A    between atoms: _45  and  _46
REMARK   18  A    between atoms: _45  and  _48
REMARK   19  A    between atoms: _48  and  _49
REMARK   20  A    between atoms: _55  and  _57
REMARK   21  A    between atoms: _57  and  _58
REMARK   22  A    between atoms: _57  and  _60
REMARK   23  A    between atoms: _60  and  _61
REMARK   24  A    between atoms: _71  and  _73
REMARK   25  A    between atoms: _73  and  _74
REMARK   26  A    between atoms: _73  and  _76
REMARK   27  A    between atoms: _76  and  _77
REMARK   28  A    between atoms: _82  and  _84
REMARK   29  A    between atoms: _84  and  _85
REMARK   30  A    between atoms: _84  and  _87
REMARK   31  A    between atoms: _90  and  _92
REMARK   32  A    between atoms: _92  and  _93
REMARK   33  A    between atoms: _92  and  _95
REMARK   34  A    between atoms: _95  and  _96
REMARK   35  A    between atoms: _101  and  _102
REMARK   36  A    between atoms: _104  and  _106
REMARK   37  A    between atoms: _106  and  _107
REMARK   38  A    between atoms: _106  and  _109
REMARK   39  A    between atoms: _109  and  _110
REMARK   40  A    between atoms: _116  and  _118
REMARK   41  A    between atoms: _118  and  _119
REMARK   42  A    between atoms: _118  and  _121
REMARK   43  A    between atoms: _121  and  _122
REMARK   44  A    between atoms: _125  and  _127
REMARK   45  A    between atoms: _127  and  _128
REMARK   46  A    between atoms: _127  and  _130
REMARK   47  A    between atoms: _130  and  _131
REMARK   48  A    between atoms: _134  and  _136
REMARK   49  A    between atoms: _136  and  _137
REMARK   50  A    between atoms: _136  and  _139
REMARK   51  A    between atoms: _142  and  _144
REMARK   52  A    between atoms: _144  and  _145
REMARK   53  A    between atoms: _144  and  _147
REMARK   54  A    between atoms: _150  and  _152
REMARK   55  A    between atoms: _152  and  _153
REMARK   56  A    between atoms: _152  and  _155
REMARK   57  A    between atoms: _155  and  _156
REMARK   58  A    between atoms: _160  and  ZN_327
REMARK   59  A    between atoms: _161  and  _163
REMARK   60  A    between atoms: _163  and  _164
REMARK   61  A    between atoms: _163  and  _166
REMARK   62  A    between atoms: _166  and  _167
REMARK   63  A    between atoms: _167  and  _168
REMARK   64  A    between atoms: _171  and  _173
REMARK   65  A    between atoms: _173  and  _174
REMARK   66  A    between atoms: _173  and  _176
REMARK   67  A    between atoms: _176  and  _177
REMARK   68  A    between atoms: _180  and  _182
REMARK   69  A    between atoms: _182  and  _183
REMARK   70  A    between atoms: _182  and  _185
REMARK   71  A    between atoms: _185  and  _186
REMARK   72  A    between atoms: _190  and  ZN_327
REMARK   73  A    between atoms: _191  and  _193
REMARK   74  A    between atoms: _193  and  _194
REMARK   75  A    between atoms: _193  and  _196
REMARK   76  A    between atoms: _196  and  _197
REMARK   77  A    between atoms: _202  and  _203
REMARK   78  A    between atoms: _205  and  _207
REMARK   79  A    between atoms: _207  and  _208
REMARK   80  A    between atoms: _207  and  _210
REMARK   81  A    between atoms: _210  and  _211
REMARK   82  A    between atoms: _216  and  _218
REMARK   83  A    between atoms: _218  and  _219
REMARK   84  A    between atoms: _218  and  _221
REMARK   85  A    between atoms: _221  and  _222
REMARK   86  A    between atoms: _222  and  _223
REMARK   87  A    between atoms: _223  and  _224
REMARK   88  A    between atoms: _224  and  ZN_327
REMARK   89  A    between atoms: _226  and  _228
REMARK   90  A    between atoms: _228  and  _229
REMARK   91  A    between atoms: _228  and  _231
REMARK   92  A    between atoms: _231  and  _232
REMARK   93  A    between atoms: _234  and  _236
REMARK   94  A    between atoms: _236  and  _237
REMARK   95  A    between atoms: _236  and  _239
REMARK   96  A    between atoms: _239  and  _240
REMARK   97  A    between atoms: _243  and  _245
REMARK   98  A    between atoms: _245  and  _246
REMARK   99  A    between atoms: _245  and  _248
REMARK  100  A    between atoms: _248  and  _249
REMARK  101  A    between atoms: _252  and  _254
REMARK  102  A    between atoms: _254  and  _255
REMARK  103  A    between atoms: _257  and  _259
REMARK  104  A    between atoms: _259  and  _260
REMARK  105  A    between atoms: _259  and  _262
REMARK  106  A    between atoms: _265  and  _267
REMARK  107  A    between atoms: _267  and  _268
REMARK  108  A    between atoms: _267  and  _270
REMARK  109  A    between atoms: _270  and  _271
REMARK  110  A    between atoms: _274  and  _276
REMARK  111  A    between atoms: _276  and  _277
REMARK  112  A    between atoms: _276  and  _279
REMARK  113  A    between atoms: _280  and  _281
REMARK  114  A    between atoms: _281  and  _282
REMARK  115  A    between atoms: _291  and  _293
REMARK  116  A    between atoms: _293  and  _294
REMARK  117  A    between atoms: _293  and  _296
REMARK  118  A    between atoms: _296  and  _297
REMARK  119  A    between atoms: _300  and  _302
REMARK  120  A    between atoms: _302  and  _303
REMARK  121  A    between atoms: _302  and  _305
REMARK  122  A    between atoms: _308  and  _310
REMARK  123  A    between atoms: _310  and  _311
REMARK  124  A    between atoms: _310  and  _313
REMARK  125  A    between atoms: _313  and  _314
REMARK  126  A    between atoms: _319  and  _321
REMARK  127  A    between atoms: _321  and  _322
REMARK  128  A    between atoms: _321  and  _324
REMARK  129  A    between atoms: _324  and  _325
REMARK                            x       y       z     vdW  Elec       q    Type
REMARK                         _______ _______ _______ _____ _____    ______ ____
ROOT
ATOM      1  CA  TYR A   2      44.595  21.696   0.592  0.00  0.00    +0.141 C 
ENDROOT
BRANCH   1   3
ATOM      2  C   VAL A   1      44.473  22.529  -1.658  0.00  0.00    +0.238 C 
ATOM      3  N   TYR A   2      43.894  22.448  -0.503  0.00  0.00    -0.298 N 
ATOM      4  H   TYR A   2      42.968  22.892  -0.338  0.00  0.00    +0.150 HD
ATOM      5  O   VAL A   1      45.636  22.071  -1.962  0.00  0.00    -0.274 OA
BRANCH   2   6
ATOM      6  CA  VAL A   1      43.743  23.308  -2.742  0.00  0.00    +0.145 C 
BRANCH   6   7
ATOM      7  CB  VAL A   1      43.201  22.430  -3.900  0.00  0.00    +0.025 C 
ATOM      8  CG2 VAL A   1      42.166  21.461  -3.371  0.00  0.00    +0.002 C 
ATOM      9  CG1 VAL A   1      42.804  23.592  -4.845  0.00  0.00    +0.002 C 
ENDBRANCH   6   7
BRANCH   6  10
ATOM     10  N   VAL A   1      44.606  24.255  -3.436  0.00  0.00    -0.238 NA
ATOM     11  H   VAL A   1      45.464  23.831  -3.842  0.00  0.00    +0.142 HD
ENDBRANCH   6  10
ENDBRANCH   2   6
ENDBRANCH   1   3
BRANCH   1  12
ATOM     12  C   TYR A   2      43.746  20.666   1.294  0.00  0.00    +0.227 C 
ATOM     13  O   TYR A   2      42.663  21.057   1.772  0.00  0.00    -0.286 OA
ENDBRANCH   1  12
BRANCH   1  14
ATOM     14  CB  TYR A   2      45.099  22.582   1.812  0.00  0.00    +0.054 C 
BRANCH  14  15
ATOM     15  CG  TYR A   2      46.118  23.665   1.325  0.00  0.00    -0.020 A 
ATOM     16  CD2 TYR A   2      47.447  23.420   1.233  0.00  0.00    -0.001 A 
ATOM     17  CE2 TYR A   2      48.362  24.347   0.843  0.00  0.00    +0.036 A 
ATOM     18  CZ  TYR A   2      47.872  25.589   0.519  0.00  0.00    +0.134 A 
ATOM     19  CE1 TYR A   2      46.518  25.891   0.583  0.00  0.00    +0.036 A 
ATOM     20  CD1 TYR A   2      45.593  24.921   0.995  0.00  0.00    -0.001 A 
BRANCH  18  21
ATOM     21  OH  TYR A   2      48.716  26.569   0.042  0.00  0.00    -0.506 OA
ATOM     22  HH  TYR A   2      48.196  27.392  -0.138  0.00  0.00    +0.292 HD
ENDBRANCH  18  21
ENDBRANCH  14  15
ENDBRANCH   1  14
TORSDOF 8
REMARK  Name = ../refined-set-2016/4tln/4tln_pocket.pdb
REMARK  129 active torsions:
REMARK  status: ('A' for Active; 'I' for Inactive)
REMARK    1  A    between atoms: _1  and  _3
REMARK    2  A    between atoms: _3  and  _4
REMARK    3  A    between atoms: _3  and  _6
REMARK    4  A    between atoms: _6  and  _7
REMARK    5  A    between atoms: _12  and  _13
REMARK    6  A    between atoms: _15  and  _17
REMARK    7  A    between atoms: _17  and  _18
REMARK    8  A    between atoms: _17  and  _20
REMARK    9  A    between atoms: _20  and  _21
REMARK   10  A    between atoms: _26  and  _28
REMARK   11  A    between atoms: _28  and  _29
REMARK   12  A    between atoms: _28  and  _31
REMARK   13  A    between atoms: _31  and  _32
REMARK   14  A    between atoms: _37  and  _39
REMARK   15  A    between atoms: _39  and  _40
REMARK   16  A    between atoms: _43  and  _45
REMARK   17  A    between atoms: _45  and  _46
REMARK   18  A    between atoms: _45  and  _48
REMARK   19  A    between atoms: _48  and  _49
REMARK   20  A    between atoms: _55  and  _57
REMARK   21  A    between atoms: _57  and  _58
REMARK   22  A    between atoms: _57  and  _60
REMARK   23  A    between atoms: _60  and  _61
REMARK   24  A    between atoms: _71  and  _73
REMARK   25  A    between atoms: _73  and  _74
REMARK   26  A    between atoms: _73  and  _76
REMARK   27  A    between atoms: _76  and  _77
REMARK   28  A    between atoms: _82  and  _84
REMARK   29  A    between atoms: _84  and  _85
REMARK   30  A    between atoms: _84  and  _87
REMARK   31  A    between atoms: _90  and  _92
REMARK   32  A    between atoms: _92  and  _93
REMARK   33  A    between atoms: _92  and  _95
REMARK   34  A    between atoms: _95  and  _96
REMARK   35  A    between atoms: _101  and  _102
REMARK   36  A    between atoms: _104  and  _106
REMARK   37  A    between atoms: _106  and  _107
REMARK   38  A    between atoms: _106  and  _109
REMARK   39  A    between atoms: _109  and  _110
REMARK   40  A    between atoms: _116  and  _118
REMARK   41  A    between atoms: _118  and  _119
REMARK   42  A    between atoms: _118  and  _121
REMARK   43  A    between atoms: _121  and  _122
REMARK   44  A    between atoms: _125  and  _127
REMARK   45  A    between atoms: _127  and  _128
REMARK   46  A    between atoms: _127  and  _130
REMARK   47  A    between atoms: _130  and  _131
REMARK   48  A    between atoms: _134  and  _136
REMARK   49  A    between atoms: _136  and  _137
REMARK   50  A    between atoms: _136  and  _139
REMARK   51  A    between atoms: _142  and  _144
REMARK   52  A    between atoms: _144  and  _145
REMARK   53  A    between atoms: _144  and  _147
REMARK   54  A    between atoms: _150  and  _152
REMARK   55  A    between atoms: _152  and  _153
REMARK   56  A    between atoms: _152  and  _155
REMARK   57  A    between atoms: _155  and  _156
REMARK   58  A    between atoms: _160  and  ZN_327
REMARK   59  A    between atoms: _161  and  _163
REMARK   60  A    between atoms: _163  and  _164
REMARK   61  A    between atoms: _163  and  _166
REMARK   62  A    between atoms: _166  and  _167
REMARK   63  A    between atoms: _167  and  _168
REMARK   64  A    between atoms: _171  and  _173
REMARK   65  A    between atoms: _173  and  _174
REMARK   66  A    between atoms: _173  and  _176
REMARK   67  A    between atoms: _176  and  _177
REMARK   68  A    between atoms: _180  and  _182
REMARK   69  A    between atoms: _182  and  _183
REMARK   70  A    between atoms: _182  and  _185
REMARK   71  A    between atoms: _185  and  _186
REMARK   72  A    between atoms: _190  and  ZN_327
REMARK   73  A    between atoms: _191  and  _193
REMARK   74  A    between atoms: _193  and  _194
REMARK   75  A    between atoms: _193  and  _196
REMARK   76  A    between atoms: _196  and  _197
REMARK   77  A    between atoms: _202  and  _203
REMARK   78  A    between atoms: _205  and  _207
REMARK   79  A    between atoms: _207  and  _208
REMARK   80  A    between atoms: _207  and  _210
REMARK   81  A    between atoms: _210  and  _211
REMARK   82  A    between atoms: _216  and  _218
REMARK   83  A    between atoms: _218  and  _219
REMARK   84  A    between atoms: _218  and  _221
REMARK   85  A    between atoms: _221  and  _222
REMARK   86  A    between atoms: _222  and  _223
REMARK   87  A    between atoms: _223  and  _224
REMARK   88  A    between atoms: _224  and  ZN_327
REMARK   89  A    between atoms: _226  and  _228
REMARK   90  A    between atoms: _228  and  _229
REMARK   91  A    between atoms: _228  and  _231
REMARK   92  A    between atoms: _231  and  _232
REMARK   93  A    between atoms: _234  and  _236
REMARK   94  A    between atoms: _236  and  _237
REMARK   95  A    between atoms: _236  and  _239
REMARK   96  A    between atoms: _239  and  _240
REMARK   97  A    between atoms: _243  and  _245
REMARK   98  A    between atoms: _245  and  _246
REMARK   99  A    between atoms: _245  and  _248
REMARK  100  A    between atoms: _248  and  _249
REMARK  101  A    between atoms: _252  and  _254
REMARK  102  A    between atoms: _254  and  _255
REMARK  103  A    between atoms: _257  and  _259
REMARK  104  A    between atoms: _259  and  _260
REMARK  105  A    between atoms: _259  and  _262
REMARK  106  A    between atoms: _265  and  _267
REMARK  107  A    between atoms: _267  and  _268
REMARK  108  A    between atoms: _267  and  _270
REMARK  109  A    between atoms: _270  and  _271
REMARK  110  A    between atoms: _274  and  _276
REMARK  111  A    between atoms: _276  and  _277
REMARK  112  A    between atoms: _276  and  _279
REMARK  113  A    between atoms: _280  and  _281
REMARK  114  A    between atoms: _281  and  _282
REMARK  115  A    between atoms: _291  and  _293
REMARK  116  A    between atoms: _293  and  _294
REMARK  117  A    between atoms: _293  and  _296
REMARK  118  A    between atoms: _296  and  _297
REMARK  119  A    between atoms: _300  and  _302
REMARK  120  A    between atoms: _302  and  _303
REMARK  121  A    between atoms: _302  and  _305
REMARK  122  A    between atoms: _308  and  _310
REMARK  123  A    between atoms: _310  and  _311
REMARK  124  A    between atoms: _310  and  _313
REMARK  125  A    between atoms: _313  and  _314
REMARK  126  A    between atoms: _319  and  _321
REMARK  127  A    between atoms: _321  and  _322
REMARK  128  A    between atoms: _321  and  _324
REMARK  129  A    between atoms: _324  and  _325
REMARK                            x       y       z     vdW  Elec       q    Type
REMARK                         _______ _______ _______ _____ _____    ______ ____
ROOT
ATOM      1  CB  PHE A   1      49.333  14.580   5.438  0.00  0.00    +0.046 C 
ENDROOT
BRANCH   1   2
ATOM      2  CG  PHE A   1      50.363  14.450   4.361  0.00  0.00    -0.021 A 
ATOM      3  CD2 PHE A   1      51.418  15.364   4.376  0.00  0.00    -0.004 A 
ATOM      4  CE2 PHE A   1      52.441  15.303   3.480  0.00  0.00    -0.000 A 
ATOM      5  CZ  PHE A   1      52.425  14.345   2.488  0.00  0.00    -0.000 A 
ATOM      6  CE1 PHE A   1      51.389  13.409   2.408  0.00  0.00    -0.000 A 
ATOM      7  CD1 PHE A   1      50.394  13.521   3.375  0.00  0.00    -0.004 A 
ENDBRANCH   1   2
BRANCH   1   8
ATOM      8  CA  PHE A   1      49.899  13.832   6.744  0.00  0.00    +0.106 C 
BRANCH   8   9
ATOM      9  N   PHE A   1      49.792  12.397   6.709  0.00  0.00    -0.244 NA
ATOM     10  H   PHE A   1      48.834  11.994   6.686  0.00  0.00    +0.141 HD
ENDBRANCH   8   9
BRANCH   8  11
ATOM     11  C   PHE A   1      48.859  14.382   7.688  0.00  0.00    +0.199 C 
ATOM     12  O   PHE A   1      47.891  13.561   7.852  0.00  0.00    -0.219 OA
ENDBRANCH   8  11
ENDBRANCH   1   8
TORSDOF 4
REMARK  Name = ../refined-set-2016/4tln/4tln_pocket.pdb
REMARK  129 active torsions:
REMARK  status: ('A' for Active; 'I' for Inactive)
REMARK    1  A    between atoms: _1  and  _3
REMARK    2  A    between atoms: _3  and  _4
REMARK    3  A    between atoms: _3  and  _6
REMARK    4  A    between atoms: _6  and  _7
REMARK    5  A    between atoms: _12  and  _13
REMARK    6  A    between atoms: _15  and  _17
REMARK    7  A    between atoms: _17  and  _18
REMARK    8  A    between atoms: _17  and  _20
REMARK    9  A    between atoms: _20  and  _21
REMARK   10  A    between atoms: _26  and  _28
REMARK   11  A    between atoms: _28  and  _29
REMARK   12  A    between atoms: _28  and  _31
REMARK   13  A    between atoms: _31  and  _32
REMARK   14  A    between atoms: _37  and  _39
REMARK   15  A    between atoms: _39  and  _40
REMARK   16  A    between atoms: _43  and  _45
REMARK   17  A    between atoms: _45  and  _46
REMARK   18  A    between atoms: _45  and  _48
REMARK   19  A    between atoms: _48  and  _49
REMARK   20  A    between atoms: _55  and  _57
REMARK   21  A    between atoms: _57  and  _58
REMARK   22  A    between atoms: _57  and  _60
REMARK   23  A    between atoms: _60  and  _61
REMARK   24  A    between atoms: _71  and  _73
REMARK   25  A    between atoms: _73  and  _74
REMARK   26  A    between atoms: _73  and  _76
REMARK   27  A    between atoms: _76  and  _77
REMARK   28  A    between atoms: _82  and  _84
REMARK   29  A    between atoms: _84  and  _85
REMARK   30  A    between atoms: _84  and  _87
REMARK   31  A    between atoms: _90  and  _92
REMARK   32  A    between atoms: _92  and  _93
REMARK   33  A    between atoms: _92  and  _95
REMARK   34  A    between atoms: _95  and  _96
REMARK   35  A    between atoms: _101  and  _102
REMARK   36  A    between atoms: _104  and  _106
REMARK   37  A    between atoms: _106  and  _107
REMARK   38  A    between atoms: _106  and  _109
REMARK   39  A    between atoms: _109  and  _110
REMARK   40  A    between atoms: _116  and  _118
REMARK   41  A    between atoms: _118  and  _119
REMARK   42  A    between atoms: _118  and  _121
REMARK   43  A    between atoms: _121  and  _122
REMARK   44  A    between atoms: _125  and  _127
REMARK   45  A    between atoms: _127  and  _128
REMARK   46  A    between atoms: _127  and  _130
REMARK   47  A    between atoms: _130  and  _131
REMARK   48  A    between atoms: _134  and  _136
REMARK   49  A    between atoms: _136  and  _137
REMARK   50  A    between atoms: _136  and  _139
REMARK   51  A    between atoms: _142  and  _144
REMARK   52  A    between atoms: _144  and  _145
REMARK   53  A    between atoms: _144  and  _147
REMARK   54  A    between atoms: _150  and  _152
REMARK   55  A    between atoms: _152  and  _153
REMARK   56  A    between atoms: _152  and  _155
REMARK   57  A    between atoms: _155  and  _156
REMARK   58  A    between atoms: _160  and  ZN_327
REMARK   59  A    between atoms: _161  and  _163
REMARK   60  A    between atoms: _163  and  _164
REMARK   61  A    between atoms: _163  and  _166
REMARK   62  A    between atoms: _166  and  _167
REMARK   63  A    between atoms: _167  and  _168
REMARK   64  A    between atoms: _171  and  _173
REMARK   65  A    between atoms: _173  and  _174
REMARK   66  A    between atoms: _173  and  _176
REMARK   67  A    between atoms: _176  and  _177
REMARK   68  A    between atoms: _180  and  _182
REMARK   69  A    between atoms: _182  and  _183
REMARK   70  A    between atoms: _182  and  _185
REMARK   71  A    between atoms: _185  and  _186
REMARK   72  A    between atoms: _190  and  ZN_327
REMARK   73  A    between atoms: _191  and  _193
REMARK   74  A    between atoms: _193  and  _194
REMARK   75  A    between atoms: _193  and  _196
REMARK   76  A    between atoms: _196  and  _197
REMARK   77  A    between atoms: _202  and  _203
REMARK   78  A    between atoms: _205  and  _207
REMARK   79  A    between atoms: _207  and  _208
REMARK   80  A    between atoms: _207  and  _210
REMARK   81  A    between atoms: _210  and  _211
REMARK   82  A    between atoms: _216  and  _218
REMARK   83  A    between atoms: _218  and  _219
REMARK   84  A    between atoms: _218  and  _221
REMARK   85  A    between atoms: _221  and  _222
REMARK   86  A    between atoms: _222  and  _223
REMARK   87  A    between atoms: _223  and  _224
REMARK   88  A    between atoms: _224  and  ZN_327
REMARK   89  A    between atoms: _226  and  _228
REMARK   90  A    between atoms: _228  and  _229
REMARK   91  A    between atoms: _228  and  _231
REMARK   92  A    between atoms: _231  and  _232
REMARK   93  A    between atoms: _234  and  _236
REMARK   94  A    between atoms: _236  and  _237
REMARK   95  A    between atoms: _236  and  _239
REMARK   96  A    between atoms: _239  and  _240
REMARK   97  A    between atoms: _243  and  _245
REMARK   98  A    between atoms: _245  and  _246
REMARK   99  A    between atoms: _245  and  _248
REMARK  100  A    between atoms: _248  and  _249
REMARK  101  A    between atoms: _252  and  _254
REMARK  102  A    between atoms: _254  and  _255
REMARK  103  A    between atoms: _257  and  _259
REMARK  104  A    between atoms: _259  and  _260
REMARK  105  A    between atoms: _259  and  _262
REMARK  106  A    between atoms: _265  and  _267
REMARK  107  A    between atoms: _267  and  _268
REMARK  108  A    between atoms: _267  and  _270
REMARK  109  A    between atoms: _270  and  _271
REMARK  110  A    between atoms: _274  and  _276
REMARK  111  A    between atoms: _276  and  _277
REMARK  112  A    between atoms: _276  and  _279
REMARK  113  A    between atoms: _280  and  _281
REMARK  114  A    between atoms: _281  and  _282
REMARK  115  A    between atoms: _291  and  _293
REMARK  116  A    between atoms: _293  and  _294
REMARK  117  A    between atoms: _293  and  _296
REMARK  118  A    between atoms: _296  and  _297
REMARK  119  A    between atoms: _300  and  _302
REMARK  120  A    between atoms: _302  and  _303
REMARK  121  A    between atoms: _302  and  _305
REMARK  122  A    between atoms: _308  and  _310
REMARK  123  A    between atoms: _310  and  _311
REMARK  124  A    between atoms: _310  and  _313
REMARK  125  A    between atoms: _313  and  _314
REMARK  126  A    between atoms: _319  and  _321
REMARK  127  A    between atoms: _321  and  _322
REMARK  128  A    between atoms: _321  and  _324
REMARK  129  A    between atoms: _324  and  _325
REMARK                            x       y       z     vdW  Elec       q    Type
REMARK                         _______ _______ _______ _____ _____    ______ ____
ROOT
ATOM      1  CA  LEU A   1      48.827  20.390   4.506  0.00  0.00    +0.101 C 
ENDROOT
BRANCH   1   2
ATOM      2  N   LEU A   1      47.721  19.830   5.236  0.00  0.00    -0.244 NA
ATOM      3  H   LEU A   1      46.976  19.310   4.730  0.00  0.00    +0.141 HD
ENDBRANCH   1   2
BRANCH   1   4
ATOM      4  C   LEU A   1      49.129  21.813   4.536  0.00  0.00    +0.199 C 
ATOM      5  O   LEU A   1      50.389  22.007   4.204  0.00  0.00    -0.219 OA
ENDBRANCH   1   4
BRANCH   1   6
ATOM      6  CB  LEU A   1      48.756  19.788   3.035  0.00  0.00    +0.020 C 
BRANCH   6   7
ATOM      7  CG  LEU A   1      49.133  18.306   3.257  0.00  0.00    +0.001 C 
ATOM      8  CD2 LEU A   1      47.948  17.360   3.496  0.00  0.00    +0.000 C 
ATOM      9  CD1 LEU A   1      49.853  17.855   2.029  0.00  0.00    +0.000 C 
ENDBRANCH   6   7
ENDBRANCH   1   6
TORSDOF 4
REMARK  Name = ../refined-set-2016/4tln/4tln_pocket.pdb
REMARK  129 active torsions:
REMARK  status: ('A' for Active; 'I' for Inactive)
REMARK    1  A    between atoms: _1  and  _3
REMARK    2  A    between atoms: _3  and  _4
REMARK    3  A    between atoms: _3  and  _6
REMARK    4  A    between atoms: _6  and  _7
REMARK    5  A    between atoms: _12  and  _13
REMARK    6  A    between atoms: _15  and  _17
REMARK    7  A    between atoms: _17  and  _18
REMARK    8  A    between atoms: _17  and  _20
REMARK    9  A    between atoms: _20  and  _21
REMARK   10  A    between atoms: _26  and  _28
REMARK   11  A    between atoms: _28  and  _29
REMARK   12  A    between atoms: _28  and  _31
REMARK   13  A    between atoms: _31  and  _32
REMARK   14  A    between atoms: _37  and  _39
REMARK   15  A    between atoms: _39  and  _40
REMARK   16  A    between atoms: _43  and  _45
REMARK   17  A    between atoms: _45  and  _46
REMARK   18  A    between atoms: _45  and  _48
REMARK   19  A    between atoms: _48  and  _49
REMARK   20  A    between atoms: _55  and  _57
REMARK   21  A    between atoms: _57  and  _58
REMARK   22  A    between atoms: _57  and  _60
REMARK   23  A    between atoms: _60  and  _61
REMARK   24  A    between atoms: _71  and  _73
REMARK   25  A    between atoms: _73  and  _74
REMARK   26  A    between atoms: _73  and  _76
REMARK   27  A    between atoms: _76  and  _77
REMARK   28  A    between atoms: _82  and  _84
REMARK   29  A    between atoms: _84  and  _85
REMARK   30  A    between atoms: _84  and  _87
REMARK   31  A    between atoms: _90  and  _92
REMARK   32  A    between atoms: _92  and  _93
REMARK   33  A    between atoms: _92  and  _95
REMARK   34  A    between atoms: _95  and  _96
REMARK   35  A    between atoms: _101  and  _102
REMARK   36  A    between atoms: _104  and  _106
REMARK   37  A    between atoms: _106  and  _107
REMARK   38  A    between atoms: _106  and  _109
REMARK   39  A    between atoms: _109  and  _110
REMARK   40  A    between atoms: _116  and  _118
REMARK   41  A    between atoms: _118  and  _119
REMARK   42  A    between atoms: _118  and  _121
REMARK   43  A    between atoms: _121  and  _122
REMARK   44  A    between atoms: _125  and  _127
REMARK   45  A    between atoms: _127  and  _128
REMARK   46  A    between atoms: _127  and  _130
REMARK   47  A    between atoms: _130  and  _131
REMARK   48  A    between atoms: _134  and  _136
REMARK   49  A    between atoms: _136  and  _137
REMARK   50  A    between atoms: _136  and  _139
REMARK   51  A    between atoms: _142  and  _144
REMARK   52  A    between atoms: _144  and  _145
REMARK   53  A    between atoms: _144  and  _147
REMARK   54  A    between atoms: _150  and  _152
REMARK   55  A    between atoms: _152  and  _153
REMARK   56  A    between atoms: _152  and  _155
REMARK   57  A    between atoms: _155  and  _156
REMARK   58  A    between atoms: _160  and  ZN_327
REMARK   59  A    between atoms: _161  and  _163
REMARK   60  A    between atoms: _163  and  _164
REMARK   61  A    between atoms: _163  and  _166
REMARK   62  A    between atoms: _166  and  _167
REMARK   63  A    between atoms: _167  and  _168
REMARK   64  A    between atoms: _171  and  _173
REMARK   65  A    between atoms: _173  and  _174
REMARK   66  A    between atoms: _173  and  _176
REMARK   67  A    between atoms: _176  and  _177
REMARK   68  A    between atoms: _180  and  _182
REMARK   69  A    between atoms: _182  and  _183
REMARK   70  A    between atoms: _182  and  _185
REMARK   71  A    between atoms: _185  and  _186
REMARK   72  A    between atoms: _190  and  ZN_327
REMARK   73  A    between atoms: _191  and  _193
REMARK   74  A    between atoms: _193  and  _194
REMARK   75  A    between atoms: _193  and  _196
REMARK   76  A    between atoms: _196  and  _197
REMARK   77  A    between atoms: _202  and  _203
REMARK   78  A    between atoms: _205  and  _207
REMARK   79  A    between atoms: _207  and  _208
REMARK   80  A    between atoms: _207  and  _210
REMARK   81  A    between atoms: _210  and  _211
REMARK   82  A    between atoms: _216  and  _218
REMARK   83  A    between atoms: _218  and  _219
REMARK   84  A    between atoms: _218  and  _221
REMARK   85  A    between atoms: _221  and  _222
REMARK   86  A    between atoms: _222  and  _223
REMARK   87  A    between atoms: _223  and  _224
REMARK   88  A    between atoms: _224  and  ZN_327
REMARK   89  A    between atoms: _226  and  _228
REMARK   90  A    between atoms: _228  and  _229
REMARK   91  A    between atoms: _228  and  _231
REMARK   92  A    between atoms: _231  and  _232
REMARK   93  A    between atoms: _234  and  _236
REMARK   94  A    between atoms: _236  and  _237
REMARK   95  A    between atoms: _236  and  _239
REMARK   96  A    between atoms: _239  and  _240
REMARK   97  A    between atoms: _243  and  _245
REMARK   98  A    between atoms: _245  and  _246
REMARK   99  A    between atoms: _245  and  _248
REMARK  100  A    between atoms: _248  and  _249
REMARK  101  A    between atoms: _252  and  _254
REMARK  102  A    between atoms: _254  and  _255
REMARK  103  A    between atoms: _257  and  _259
REMARK  104  A    between atoms: _259  and  _260
REMARK  105  A    between atoms: _259  and  _262
REMARK  106  A    between atoms: _265  and  _267
REMARK  107  A    between atoms: _267  and  _268
REMARK  108  A    between atoms: _267  and  _270
REMARK  109  A    between atoms: _270  and  _271
REMARK  110  A    between atoms: _274  and  _276
REMARK  111  A    between atoms: _276  and  _277
REMARK  112  A    between atoms: _276  and  _279
REMARK  113  A    between atoms: _280  and  _281
REMARK  114  A    between atoms: _281  and  _282
REMARK  115  A    between atoms: _291  and  _293
REMARK  116  A    between atoms: _293  and  _294
REMARK  117  A    between atoms: _293  and  _296
REMARK  118  A    between atoms: _296  and  _297
REMARK  119  A    between atoms: _300  and  _302
REMARK  120  A    between atoms: _302  and  _303
REMARK  121  A    between atoms: _302  and  _305
REMARK  122  A    between atoms: _308  and  _310
REMARK  123  A    between atoms: _310  and  _311
REMARK  124  A    between atoms: _310  and  _313
REMARK  125  A    between atoms: _313  and  _314
REMARK  126  A    between atoms: _319  and  _321
REMARK  127  A    between atoms: _321  and  _322
REMARK  128  A    between atoms: _321  and  _324
REMARK  129  A    between atoms: _324  and  _325
REMARK                            x       y       z     vdW  Elec       q    Type
REMARK                         _______ _______ _______ _____ _____    ______ ____
ROOT
ATOM      1  CA  VAL A   2      54.171  23.150   1.010  0.00  0.00    +0.148 C 
ENDROOT
BRANCH   1   3
ATOM      2  C   ASP A   1      56.430  24.496   1.363  0.00  0.00    +0.239 C 
ATOM      3  N   VAL A   2      55.310  23.837   1.805  0.00  0.00    -0.297 N 
ATOM      4  H   VAL A   2      55.210  23.791   2.839  0.00  0.00    +0.150 HD
ATOM      5  O   ASP A   1      56.756  24.595   0.173  0.00  0.00    -0.274 OA
BRANCH   2   6
ATOM      6  CA  ASP A   1      57.463  25.079   2.329  0.00  0.00    +0.156 C 
BRANCH   6   7
ATOM      7  N   ASP A   1      56.788  25.470   3.524  0.00  0.00    -0.238 NA
ATOM      8  H   ASP A   1      57.070  25.009   4.413  0.00  0.00    +0.142 HD
ENDBRANCH   6   7
BRANCH   6   9
ATOM      9  CB  ASP A   1      58.689  24.192   2.615  0.00  0.00    +0.140 C 
BRANCH   9  10
ATOM     10  CG  ASP A   1      58.462  22.958   3.347  0.00  0.00    +0.367 C 
ATOM     11  OD2 ASP A   1      57.344  22.637   3.861  0.00  0.00    -0.246 OA
ATOM     12  OD1 ASP A   1      59.274  21.987   3.559  0.00  0.00    -0.246 OA
ENDBRANCH   9  10
ENDBRANCH   6   9
ENDBRANCH   2   6
ENDBRANCH   1   3
BRANCH   1  13
ATOM     13  C   VAL A   2      53.458  24.309   0.374  0.00  0.00    +0.241 C 
ATOM     14  N   VAL A   3      53.030  25.284   1.273  0.00  0.00    -0.298 N 
ATOM     15  H   VAL A   3      53.219  25.147   2.286  0.00  0.00    +0.150 HD
ATOM     16  O   VAL A   2      53.305  24.361  -0.804  0.00  0.00    -0.273 OA
BRANCH  14  17
ATOM     17  CA  VAL A   3      52.320  26.500   0.843  0.00  0.00    +0.137 C 
BRANCH  17  18
ATOM     18  CB  VAL A   3      51.958  27.376   1.986  0.00  0.00    +0.026 C 
ATOM     19  CG2 VAL A   3      50.846  26.855   2.804  0.00  0.00    +0.002 C 
ATOM     20  CG1 VAL A   3      51.527  28.711   1.377  0.00  0.00    +0.002 C 
ENDBRANCH  17  18
BRANCH  17  21
ATOM     21  C   VAL A   3      53.140  27.289  -0.215  0.00  0.00    +0.227 C 
ATOM     22  O   VAL A   3      52.557  27.755  -1.234  0.00  0.00    -0.286 OA
ENDBRANCH  17  21
ENDBRANCH  14  17
ENDBRANCH   1  13
BRANCH   1  23
ATOM     23  CB  VAL A   2      53.228  22.325   1.917  0.00  0.00    +0.027 C 
ATOM     24  CG2 VAL A   2      53.839  21.076   2.426  0.00  0.00    +0.002 C 
ATOM     25  CG1 VAL A   2      51.843  22.026   1.339  0.00  0.00    +0.002 C 
ENDBRANCH   1  23
TORSDOF 10
REMARK  Name = ../refined-set-2016/4tln/4tln_pocket.pdb
REMARK  129 active torsions:
REMARK  status: ('A' for Active; 'I' for Inactive)
REMARK    1  A    between atoms: _1  and  _3
REMARK    2  A    between atoms: _3  and  _4
REMARK    3  A    between atoms: _3  and  _6
REMARK    4  A    between atoms: _6  and  _7
REMARK    5  A    between atoms: _12  and  _13
REMARK    6  A    between atoms: _15  and  _17
REMARK    7  A    between atoms: _17  and  _18
REMARK    8  A    between atoms: _17  and  _20
REMARK    9  A    between atoms: _20  and  _21
REMARK   10  A    between atoms: _26  and  _28
REMARK   11  A    between atoms: _28  and  _29
REMARK   12  A    between atoms: _28  and  _31
REMARK   13  A    between atoms: _31  and  _32
REMARK   14  A    between atoms: _37  and  _39
REMARK   15  A    between atoms: _39  and  _40
REMARK   16  A    between atoms: _43  and  _45
REMARK   17  A    between atoms: _45  and  _46
REMARK   18  A    between atoms: _45  and  _48
REMARK   19  A    between atoms: _48  and  _49
REMARK   20  A    between atoms: _55  and  _57
REMARK   21  A    between atoms: _57  and  _58
REMARK   22  A    between atoms: _57  and  _60
REMARK   23  A    between atoms: _60  and  _61
REMARK   24  A    between atoms: _71  and  _73
REMARK   25  A    between atoms: _73  and  _74
REMARK   26  A    between atoms: _73  and  _76
REMARK   27  A    between atoms: _76  and  _77
REMARK   28  A    between atoms: _82  and  _84
REMARK   29  A    between atoms: _84  and  _85
REMARK   30  A    between atoms: _84  and  _87
REMARK   31  A    between atoms: _90  and  _92
REMARK   32  A    between atoms: _92  and  _93
REMARK   33  A    between atoms: _92  and  _95
REMARK   34  A    between atoms: _95  and  _96
REMARK   35  A    between atoms: _101  and  _102
REMARK   36  A    between atoms: _104  and  _106
REMARK   37  A    between atoms: _106  and  _107
REMARK   38  A    between atoms: _106  and  _109
REMARK   39  A    between atoms: _109  and  _110
REMARK   40  A    between atoms: _116  and  _118
REMARK   41  A    between atoms: _118  and  _119
REMARK   42  A    between atoms: _118  and  _121
REMARK   43  A    between atoms: _121  and  _122
REMARK   44  A    between atoms: _125  and  _127
REMARK   45  A    between atoms: _127  and  _128
REMARK   46  A    between atoms: _127  and  _130
REMARK   47  A    between atoms: _130  and  _131
REMARK   48  A    between atoms: _134  and  _136
REMARK   49  A    between atoms: _136  and  _137
REMARK   50  A    between atoms: _136  and  _139
REMARK   51  A    between atoms: _142  and  _144
REMARK   52  A    between atoms: _144  and  _145
REMARK   53  A    between atoms: _144  and  _147
REMARK   54  A    between atoms: _150  and  _152
REMARK   55  A    between atoms: _152  and  _153
REMARK   56  A    between atoms: _152  and  _155
REMARK   57  A    between atoms: _155  and  _156
REMARK   58  A    between atoms: _160  and  ZN_327
REMARK   59  A    between atoms: _161  and  _163
REMARK   60  A    between atoms: _163  and  _164
REMARK   61  A    between atoms: _163  and  _166
REMARK   62  A    between atoms: _166  and  _167
REMARK   63  A    between atoms: _167  and  _168
REMARK   64  A    between atoms: _171  and  _173
REMARK   65  A    between atoms: _173  and  _174
REMARK   66  A    between atoms: _173  and  _176
REMARK   67  A    between atoms: _176  and  _177
REMARK   68  A    between atoms: _180  and  _182
REMARK   69  A    between atoms: _182  and  _183
REMARK   70  A    between atoms: _182  and  _185
REMARK   71  A    between atoms: _185  and  _186
REMARK   72  A    between atoms: _190  and  ZN_327
REMARK   73  A    between atoms: _191  and  _193
REMARK   74  A    between atoms: _193  and  _194
REMARK   75  A    between atoms: _193  and  _196
REMARK   76  A    between atoms: _196  and  _197
REMARK   77  A    between atoms: _202  and  _203
REMARK   78  A    between atoms: _205  and  _207
REMARK   79  A    between atoms: _207  and  _208
REMARK   80  A    between atoms: _207  and  _210
REMARK   81  A    between atoms: _210  and  _211
REMARK   82  A    between atoms: _216  and  _218
REMARK   83  A    between atoms: _218  and  _219
REMARK   84  A    between atoms: _218  and  _221
REMARK   85  A    between atoms: _221  and  _222
REMARK   86  A    between atoms: _222  and  _223
REMARK   87  A    between atoms: _223  and  _224
REMARK   88  A    between atoms: _224  and  ZN_327
REMARK   89  A    between atoms: _226  and  _228
REMARK   90  A    between atoms: _228  and  _229
REMARK   91  A    between atoms: _228  and  _231
REMARK   92  A    between atoms: _231  and  _232
REMARK   93  A    between atoms: _234  and  _236
REMARK   94  A    between atoms: _236  and  _237
REMARK   95  A    between atoms: _236  and  _239
REMARK   96  A    between atoms: _239  and  _240
REMARK   97  A    between atoms: _243  and  _245
REMARK   98  A    between atoms: _245  and  _246
REMARK   99  A    between atoms: _245  and  _248
REMARK  100  A    between atoms: _248  and  _249
REMARK  101  A    between atoms: _252  and  _254
REMARK  102  A    between atoms: _254  and  _255
REMARK  103  A    between atoms: _257  and  _259
REMARK  104  A    between atoms: _259  and  _260
REMARK  105  A    between atoms: _259  and  _262
REMARK  106  A    between atoms: _265  and  _267
REMARK  107  A    between atoms: _267  and  _268
REMARK  108  A    between atoms: _267  and  _270
REMARK  109  A    between atoms: _270  and  _271
REMARK  110  A    between atoms: _274  and  _276
REMARK  111  A    between atoms: _276  and  _277
REMARK  112  A    between atoms: _276  and  _279
REMARK  113  A    between atoms: _280  and  _281
REMARK  114  A    between atoms: _281  and  _282
REMARK  115  A    between atoms: _291  and  _293
REMARK  116  A    between atoms: _293  and  _294
REMARK  117  A    between atoms: _293  and  _296
REMARK  118  A    between atoms: _296  and  _297
REMARK  119  A    between atoms: _300  and  _302
REMARK  120  A    between atoms: _302  and  _303
REMARK  121  A    between atoms: _302  and  _305
REMARK  122  A    between atoms: _308  and  _310
REMARK  123  A    between atoms: _310  and  _311
REMARK  124  A    between atoms: _310  and  _313
REMARK  125  A    between atoms: _313  and  _314
REMARK  126  A    between atoms: _319  and  _321
REMARK  127  A    between atoms: _321  and  _322
REMARK  128  A    between atoms: _321  and  _324
REMARK  129  A    between atoms: _324  and  _325
REMARK                            x       y       z     vdW  Elec       q    Type
REMARK                         _______ _______ _______ _____ _____    ______ ____
ROOT
ATOM      1 ZN   UNK A   1      54.476  20.388  -7.035  0.00  0.00    +0.000 Zn
ENDROOT
BRANCH   1   5
ATOM      2  C   UNK A   1      56.089  22.730  -3.675  0.00  0.00    +0.000 A 
ATOM      3  N   UNK A   1      57.136  21.855  -3.908  0.00  0.00    +0.000 NA
ATOM      4  C   UNK A   1      56.842  21.063  -4.965  0.00  0.00    +0.000 A 
ATOM      5  N   UNK A   1      55.577  21.404  -5.336  0.00  0.00    +0.000 N 
ATOM      6  C   UNK A   1      55.069  22.390  -4.558  0.00  0.00    +0.000 A 
BRANCH   2   7
ATOM      7  C   UNK A   1      56.023  23.828  -2.674  0.00  0.00    +0.000 C 
BRANCH   7   8
ATOM      8  C   UNK A   1      55.859  25.200  -3.268  0.00  0.00    +0.000 C 
BRANCH   8   9
ATOM      9  C   UNK A   1      54.714  25.336  -4.347  0.00  0.00    +0.000 C 
ATOM     10  N   UNK A   2      53.478  25.416  -3.849  0.00  0.00    +0.000 N 
ATOM     11  H   UNK A   2      53.445  25.404  -2.810  0.00  0.00    +0.000 HD
ATOM     12  O   UNK A   1      54.795  25.354  -5.515  0.00  0.00    +0.000 OA
BRANCH  10  13
ATOM     13  C   UNK A   2      52.175  25.516  -4.470  0.00  0.00    +0.000 C 
BRANCH  13  14
ATOM     14  C   UNK A   2      51.972  26.837  -5.132  0.00  0.00    +0.000 C 
ATOM     15  N   LEU A   3      52.324  27.934  -4.507  0.00  0.00    +0.000 N 
ATOM     16  H   LEU A   3      52.730  27.823  -3.556  0.00  0.00    +0.000 HD
ATOM     17  O   UNK A   2      51.553  26.817  -6.314  0.00  0.00    +0.000 OA
BRANCH  15  18
ATOM     18  CA  LEU A   3      52.202  29.296  -5.015  0.00  0.00    +0.000 C 
BRANCH  18  19
ATOM     19  C   LEU A   3      53.194  29.425  -6.130  0.00  0.00    +0.000 C 
ATOM     20  O   LEU A   3      52.961  29.996  -7.317  0.00  0.00    +0.000 OA
ENDBRANCH  18  19
BRANCH  18  21
ATOM     21  CB  LEU A   3      52.358  30.212  -3.765  0.00  0.00    +0.000 C 
BRANCH  21  22
ATOM     22  CG  LEU A   3      51.614  31.561  -3.815  0.00  0.00    +0.000 C 
ATOM     23  CD2 LEU A   3      50.274  31.234  -4.511  0.00  0.00    +0.000 C 
ATOM     24  CD1 LEU A   3      52.162  32.544  -4.759  0.00  0.00    +0.000 C 
ENDBRANCH  21  22
ENDBRANCH  18  21
ENDBRANCH  15  18
ENDBRANCH  13  14
BRANCH  13  25
ATOM     25  C   UNK A   2      51.130  25.279  -3.473  0.00  0.00    +0.000 C 
BRANCH  25  26
ATOM     26  C   UNK A   2      50.927  23.767  -2.962  0.00  0.00    +0.000 C 
BRANCH  26  27
ATOM     27  C   UNK A   2      51.143  22.731  -4.057  0.00  0.00    +0.000 C 
ATOM     28  O   UNK A   2      51.540  21.734  -3.446  0.00  0.00    +0.000 OA
ATOM     29  O   UNK A   2      51.058  22.612  -5.223  0.00  0.00    +0.000 OA
ENDBRANCH  26  27
ENDBRANCH  25  26
ENDBRANCH  13  25
ENDBRANCH  10  13
ENDBRANCH   8   9
BRANCH   8  30
ATOM     30  N   UNK A   1      55.581  26.124  -2.205  0.00  0.00    +0.000 NA
ATOM     31  H   UNK A   1      55.378  25.733  -1.263  0.00  0.00    +0.000 HD
ENDBRANCH   8  30
ENDBRANCH   7   8
ENDBRANCH   2   7
ENDBRANCH   1   5
BRANCH   1  32
ATOM     32  N   UNK A   1      53.911  22.106  -7.869  0.00  0.00    +0.000 N 
ATOM     33  C   UNK A   1      53.062  23.233  -7.694  0.00  0.00    +0.000 A 
ATOM     34  C   UNK A   1      53.247  24.089  -8.740  0.00  0.00    +0.000 A 
ATOM     35  N   UNK A   1      54.190  23.384  -9.433  0.00  0.00    +0.000 NA
ATOM     36  C   UNK A   1      54.554  22.217  -8.948  0.00  0.00    +0.000 A 
BRANCH  34  37
ATOM     37  C   UNK A   1      52.630  25.336  -9.075  0.00  0.00    +0.000 C 
BRANCH  37  38
ATOM     38  C   UNK A   1      53.591  26.505  -9.287  0.00  0.00    +0.000 C 
BRANCH  38  39
ATOM     39  C   UNK A   1      52.820  27.580 -10.116  0.00  0.00    +0.000 C 
ATOM     40  O   UNK A   1      52.769  27.473 -11.298  0.00  0.00    +0.000 OA
ENDBRANCH  38  39
BRANCH  38  41
ATOM     41  N   UNK A   1      54.132  27.199  -8.141  0.00  0.00    +0.000 NA
ATOM     42  H   UNK A   1      53.809  26.869  -7.209  0.00  0.00    +0.000 HD
ENDBRANCH  38  41
ENDBRANCH  37  38
ENDBRANCH  34  37
ENDBRANCH   1  32
BRANCH   1  43
ATOM     43  O   UNK A   2      55.386  19.453  -8.521  0.00  0.00    +0.000 OA
BRANCH  43  44
ATOM     44  C   UNK A   2      56.370  18.912  -8.464  0.00  0.00    +0.000 C 
ATOM     45  O   UNK A   2      56.825  18.813  -7.233  0.00  0.00    +0.000 OA
BRANCH  44  46
ATOM     46  C   UNK A   2      57.197  18.364  -9.546  0.00  0.00    +0.000 C 
BRANCH  46  47
ATOM     47  C   UNK A   2      58.548  19.012  -9.178  0.00  0.00    +0.000 C 
BRANCH  47  48
ATOM     48  C   UNK A   2      58.532  20.481  -9.282  0.00  0.00    +0.000 C 
BRANCH  48  49
ATOM     49  N   UNK A   2      58.695  20.936 -10.724  0.00  0.00    +0.000 N 
ATOM     50  C   UNK A   1      58.667  22.211 -11.081  0.00  0.00    +0.000 C 
ATOM     51  O   UNK A   1      58.431  23.199 -10.340  0.00  0.00    +0.000 OA
ATOM     52  H   UNK A   2      58.834  20.215 -11.461  0.00  0.00    +0.000 HD
BRANCH  50  53
ATOM     53  C   UNK A   1      58.855  22.419 -12.565  0.00  0.00    +0.000 C 
BRANCH  53  54
ATOM     54  N   UNK A   1      59.957  21.655 -13.230  0.00  0.00    +0.000 NA
ATOM     55  H   UNK A   1      59.773  21.036 -14.045  0.00  0.00    +0.000 HD
ENDBRANCH  53  54
BRANCH  53  56
ATOM     56  C   UNK A   1      57.539  22.057 -13.339  0.00  0.00    +0.000 C 
BRANCH  56  57
ATOM     57  C   UNK A   1      56.284  22.754 -12.981  0.00  0.00    +0.000 C 
ATOM     58  O   UNK A   1      55.927  23.001 -11.779  0.00  0.00    +0.000 OA
ATOM     59  N   UNK A   1      55.452  23.219 -13.876  0.00  0.00    +0.000 N 
ATOM     60  H   UNK A   1      54.599  23.732 -13.576  0.00  0.00    +0.000 HD
ATOM     61  H   UNK A   1      55.643  23.076 -14.888  0.00  0.00    +0.000 HD
ENDBRANCH  56  57
ENDBRANCH  53  56
ENDBRANCH  50  53
ENDBRANCH  48  49
BRANCH  48  62
ATOM     62  C   UNK A   2      59.777  20.931  -8.497  0.00  0.00    +0.000 C 
ATOM     63  O   UNK A   2      59.454  21.370  -7.485  0.00  0.00    +0.000 OA
ENDBRANCH  48  62
ENDBRANCH  47  48
ENDBRANCH  46  47
ENDBRANCH  44  46
ENDBRANCH  43  44
ENDBRANCH   1  43
TORSDOF 30
REMARK  Name = ../refined-set-2016/4tln/4tln_pocket.pdb
REMARK  129 active torsions:
REMARK  status: ('A' for Active; 'I' for Inactive)
REMARK    1  A    between atoms: _1  and  _3
REMARK    2  A    between atoms: _3  and  _4
REMARK    3  A    between atoms: _3  and  _6
REMARK    4  A    between atoms: _6  and  _7
REMARK    5  A    between atoms: _12  and  _13
REMARK    6  A    between atoms: _15  and  _17
REMARK    7  A    between atoms: _17  and  _18
REMARK    8  A    between atoms: _17  and  _20
REMARK    9  A    between atoms: _20  and  _21
REMARK   10  A    between atoms: _26  and  _28
REMARK   11  A    between atoms: _28  and  _29
REMARK   12  A    between atoms: _28  and  _31
REMARK   13  A    between atoms: _31  and  _32
REMARK   14  A    between atoms: _37  and  _39
REMARK   15  A    between atoms: _39  and  _40
REMARK   16  A    between atoms: _43  and  _45
REMARK   17  A    between atoms: _45  and  _46
REMARK   18  A    between atoms: _45  and  _48
REMARK   19  A    between atoms: _48  and  _49
REMARK   20  A    between atoms: _55  and  _57
REMARK   21  A    between atoms: _57  and  _58
REMARK   22  A    between atoms: _57  and  _60
REMARK   23  A    between atoms: _60  and  _61
REMARK   24  A    between atoms: _71  and  _73
REMARK   25  A    between atoms: _73  and  _74
REMARK   26  A    between atoms: _73  and  _76
REMARK   27  A    between atoms: _76  and  _77
REMARK   28  A    between atoms: _82  and  _84
REMARK   29  A    between atoms: _84  and  _85
REMARK   30  A    between atoms: _84  and  _87
REMARK   31  A    between atoms: _90  and  _92
REMARK   32  A    between atoms: _92  and  _93
REMARK   33  A    between atoms: _92  and  _95
REMARK   34  A    between atoms: _95  and  _96
REMARK   35  A    between atoms: _101  and  _102
REMARK   36  A    between atoms: _104  and  _106
REMARK   37  A    between atoms: _106  and  _107
REMARK   38  A    between atoms: _106  and  _109
REMARK   39  A    between atoms: _109  and  _110
REMARK   40  A    between atoms: _116  and  _118
REMARK   41  A    between atoms: _118  and  _119
REMARK   42  A    between atoms: _118  and  _121
REMARK   43  A    between atoms: _121  and  _122
REMARK   44  A    between atoms: _125  and  _127
REMARK   45  A    between atoms: _127  and  _128
REMARK   46  A    between atoms: _127  and  _130
REMARK   47  A    between atoms: _130  and  _131
REMARK   48  A    between atoms: _134  and  _136
REMARK   49  A    between atoms: _136  and  _137
REMARK   50  A    between atoms: _136  and  _139
REMARK   51  A    between atoms: _142  and  _144
REMARK   52  A    between atoms: _144  and  _145
REMARK   53  A    between atoms: _144  and  _147
REMARK   54  A    between atoms: _150  and  _152
REMARK   55  A    between atoms: _152  and  _153
REMARK   56  A    between atoms: _152  and  _155
REMARK   57  A    between atoms: _155  and  _156
REMARK   58  A    between atoms: _160  and  ZN_327
REMARK   59  A    between atoms: _161  and  _163
REMARK   60  A    between atoms: _163  and  _164
REMARK   61  A    between atoms: _163  and  _166
REMARK   62  A    between atoms: _166  and  _167
REMARK   63  A    between atoms: _167  and  _168
REMARK   64  A    between atoms: _171  and  _173
REMARK   65  A    between atoms: _173  and  _174
REMARK   66  A    between atoms: _173  and  _176
REMARK   67  A    between atoms: _176  and  _177
REMARK   68  A    between atoms: _180  and  _182
REMARK   69  A    between atoms: _182  and  _183
REMARK   70  A    between atoms: _182  and  _185
REMARK   71  A    between atoms: _185  and  _186
REMARK   72  A    between atoms: _190  and  ZN_327
REMARK   73  A    between atoms: _191  and  _193
REMARK   74  A    between atoms: _193  and  _194
REMARK   75  A    between atoms: _193  and  _196
REMARK   76  A    between atoms: _196  and  _197
REMARK   77  A    between atoms: _202  and  _203
REMARK   78  A    between atoms: _205  and  _207
REMARK   79  A    between atoms: _207  and  _208
REMARK   80  A    between atoms: _207  and  _210
REMARK   81  A    between atoms: _210  and  _211
REMARK   82  A    between atoms: _216  and  _218
REMARK   83  A    between atoms: _218  and  _219
REMARK   84  A    between atoms: _218  and  _221
REMARK   85  A    between atoms: _221  and  _222
REMARK   86  A    between atoms: _222  and  _223
REMARK   87  A    between atoms: _223  and  _224
REMARK   88  A    between atoms: _224  and  ZN_327
REMARK   89  A    between atoms: _226  and  _228
REMARK   90  A    between atoms: _228  and  _229
REMARK   91  A    between atoms: _228  and  _231
REMARK   92  A    between atoms: _231  and  _232
REMARK   93  A    between atoms: _234  and  _236
REMARK   94  A    between atoms: _236  and  _237
REMARK   95  A    between atoms: _236  and  _239
REMARK   96  A    between atoms: _239  and  _240
REMARK   97  A    between atoms: _243  and  _245
REMARK   98  A    between atoms: _245  and  _246
REMARK   99  A    between atoms: _245  and  _248
REMARK  100  A    between atoms: _248  and  _249
REMARK  101  A    between atoms: _252  and  _254
REMARK  102  A    between atoms: _254  and  _255
REMARK  103  A    between atoms: _257  and  _259
REMARK  104  A    between atoms: _259  and  _260
REMARK  105  A    between atoms: _259  and  _262
REMARK  106  A    between atoms: _265  and  _267
REMARK  107  A    between atoms: _267  and  _268
REMARK  108  A    between atoms: _267  and  _270
REMARK  109  A    between atoms: _270  and  _271
REMARK  110  A    between atoms: _274  and  _276
REMARK  111  A    between atoms: _276  and  _277
REMARK  112  A    between atoms: _276  and  _279
REMARK  113  A    between atoms: _280  and  _281
REMARK  114  A    between atoms: _281  and  _282
REMARK  115  A    between atoms: _291  and  _293
REMARK  116  A    between atoms: _293  and  _294
REMARK  117  A    between atoms: _293  and  _296
REMARK  118  A    between atoms: _296  and  _297
REMARK  119  A    between atoms: _300  and  _302
REMARK  120  A    between atoms: _302  and  _303
REMARK  121  A    between atoms: _302  and  _305
REMARK  122  A    between atoms: _308  and  _310
REMARK  123  A    between atoms: _310  and  _311
REMARK  124  A    between atoms: _310  and  _313
REMARK  125  A    between atoms: _313  and  _314
REMARK  126  A    between atoms: _319  and  _321
REMARK  127  A    between atoms: _321  and  _322
REMARK  128  A    between atoms: _321  and  _324
REMARK  129  A    between atoms: _324  and  _325
REMARK                            x       y       z     vdW  Elec       q    Type
REMARK                         _______ _______ _______ _____ _____    ______ ____
ROOT
ATOM      1  CG  TYR A   1      52.991  18.782 -13.914  0.00  0.00    -0.020 A 
ATOM      2  CD2 TYR A   1      53.864  19.609 -13.165  0.00  0.00    -0.001 A 
ATOM      3  CE2 TYR A   1      54.142  19.438 -11.776  0.00  0.00    +0.036 A 
ATOM      4  CZ  TYR A   1      53.482  18.370 -11.130  0.00  0.00    +0.134 A 
ATOM      5  CE1 TYR A   1      52.638  17.499 -11.844  0.00  0.00    +0.036 A 
ATOM      6  CD1 TYR A   1      52.399  17.691 -13.184  0.00  0.00    -0.001 A 
ENDROOT
BRANCH   4   7
ATOM      7  OH  TYR A   1      53.618  18.095  -9.774  0.00  0.00    -0.506 OA
ATOM      8  HH  TYR A   1      54.568  17.907  -9.570  0.00  0.00    +0.292 HD
ENDBRANCH   4   7
BRANCH   1   9
ATOM      9  CB  TYR A   1      52.616  18.938 -15.417  0.00  0.00    +0.051 C 
BRANCH   9  10
ATOM     10  CA  TYR A   1      53.935  18.919 -16.302  0.00  0.00    +0.137 C 
BRANCH  10  11
ATOM     11  N   TYR A   1      53.830  19.823 -17.422  0.00  0.00    -0.239 NA
ATOM     12  H   TYR A   1      52.893  20.064 -17.803  0.00  0.00    +0.142 HD
ENDBRANCH  10  11
BRANCH  10  13
ATOM     13  C   TYR A   1      54.363  17.545 -16.618  0.00  0.00    +0.224 C 
ATOM     14  O   TYR A   1      53.748  16.635 -16.057  0.00  0.00    -0.287 OA
ENDBRANCH  10  13
ENDBRANCH   9  10
ENDBRANCH   1   9
TORSDOF 5
REMARK  Name = ../refined-set-2016/4tln/4tln_pocket.pdb
REMARK  129 active torsions:
REMARK  status: ('A' for Active; 'I' for Inactive)
REMARK    1  A    between atoms: _1  and  _3
REMARK    2  A    between atoms: _3  and  _4
REMARK    3  A    between atoms: _3  and  _6
REMARK    4  A    between atoms: _6  and  _7
REMARK    5  A    between atoms: _12  and  _13
REMARK    6  A    between atoms: _15  and  _17
REMARK    7  A    between atoms: _17  and  _18
REMARK    8  A    between atoms: _17  and  _20
REMARK    9  A    between atoms: _20  and  _21
REMARK   10  A    between atoms: _26  and  _28
REMARK   11  A    between atoms: _28  and  _29
REMARK   12  A    between atoms: _28  and  _31
REMARK   13  A    between atoms: _31  and  _32
REMARK   14  A    between atoms: _37  and  _39
REMARK   15  A    between atoms: _39  and  _40
REMARK   16  A    between atoms: _43  and  _45
REMARK   17  A    between atoms: _45  and  _46
REMARK   18  A    between atoms: _45  and  _48
REMARK   19  A    between atoms: _48  and  _49
REMARK   20  A    between atoms: _55  and  _57
REMARK   21  A    between atoms: _57  and  _58
REMARK   22  A    between atoms: _57  and  _60
REMARK   23  A    between atoms: _60  and  _61
REMARK   24  A    between atoms: _71  and  _73
REMARK   25  A    between atoms: _73  and  _74
REMARK   26  A    between atoms: _73  and  _76
REMARK   27  A    between atoms: _76  and  _77
REMARK   28  A    between atoms: _82  and  _84
REMARK   29  A    between atoms: _84  and  _85
REMARK   30  A    between atoms: _84  and  _87
REMARK   31  A    between atoms: _90  and  _92
REMARK   32  A    between atoms: _92  and  _93
REMARK   33  A    between atoms: _92  and  _95
REMARK   34  A    between atoms: _95  and  _96
REMARK   35  A    between atoms: _101  and  _102
REMARK   36  A    between atoms: _104  and  _106
REMARK   37  A    between atoms: _106  and  _107
REMARK   38  A    between atoms: _106  and  _109
REMARK   39  A    between atoms: _109  and  _110
REMARK   40  A    between atoms: _116  and  _118
REMARK   41  A    between atoms: _118  and  _119
REMARK   42  A    between atoms: _118  and  _121
REMARK   43  A    between atoms: _121  and  _122
REMARK   44  A    between atoms: _125  and  _127
REMARK   45  A    between atoms: _127  and  _128
REMARK   46  A    between atoms: _127  and  _130
REMARK   47  A    between atoms: _130  and  _131
REMARK   48  A    between atoms: _134  and  _136
REMARK   49  A    between atoms: _136  and  _137
REMARK   50  A    between atoms: _136  and  _139
REMARK   51  A    between atoms: _142  and  _144
REMARK   52  A    between atoms: _144  and  _145
REMARK   53  A    between atoms: _144  and  _147
REMARK   54  A    between atoms: _150  and  _152
REMARK   55  A    between atoms: _152  and  _153
REMARK   56  A    between atoms: _152  and  _155
REMARK   57  A    between atoms: _155  and  _156
REMARK   58  A    between atoms: _160  and  ZN_327
REMARK   59  A    between atoms: _161  and  _163
REMARK   60  A    between atoms: _163  and  _164
REMARK   61  A    between atoms: _163  and  _166
REMARK   62  A    between atoms: _166  and  _167
REMARK   63  A    between atoms: _167  and  _168
REMARK   64  A    between atoms: _171  and  _173
REMARK   65  A    between atoms: _173  and  _174
REMARK   66  A    between atoms: _173  and  _176
REMARK   67  A    between atoms: _176  and  _177
REMARK   68  A    between atoms: _180  and  _182
REMARK   69  A    between atoms: _182  and  _183
REMARK   70  A    between atoms: _182  and  _185
REMARK   71  A    between atoms: _185  and  _186
REMARK   72  A    between atoms: _190  and  ZN_327
REMARK   73  A    between atoms: _191  and  _193
REMARK   74  A    between atoms: _193  and  _194
REMARK   75  A    between atoms: _193  and  _196
REMARK   76  A    between atoms: _196  and  _197
REMARK   77  A    between atoms: _202  and  _203
REMARK   78  A    between atoms: _205  and  _207
REMARK   79  A    between atoms: _207  and  _208
REMARK   80  A    between atoms: _207  and  _210
REMARK   81  A    between atoms: _210  and  _211
REMARK   82  A    between atoms: _216  and  _218
REMARK   83  A    between atoms: _218  and  _219
REMARK   84  A    between atoms: _218  and  _221
REMARK   85  A    between atoms: _221  and  _222
REMARK   86  A    between atoms: _222  and  _223
REMARK   87  A    between atoms: _223  and  _224
REMARK   88  A    between atoms: _224  and  ZN_327
REMARK   89  A    between atoms: _226  and  _228
REMARK   90  A    between atoms: _228  and  _229
REMARK   91  A    between atoms: _228  and  _231
REMARK   92  A    between atoms: _231  and  _232
REMARK   93  A    between atoms: _234  and  _236
REMARK   94  A    between atoms: _236  and  _237
REMARK   95  A    between atoms: _236  and  _239
REMARK   96  A    between atoms: _239  and  _240
REMARK   97  A    between atoms: _243  and  _245
REMARK   98  A    between atoms: _245  and  _246
REMARK   99  A    between atoms: _245  and  _248
REMARK  100  A    between atoms: _248  and  _249
REMARK  101  A    between atoms: _252  and  _254
REMARK  102  A    between atoms: _254  and  _255
REMARK  103  A    between atoms: _257  and  _259
REMARK  104  A    between atoms: _259  and  _260
REMARK  105  A    between atoms: _259  and  _262
REMARK  106  A    between atoms: _265  and  _267
REMARK  107  A    between atoms: _267  and  _268
REMARK  108  A    between atoms: _267  and  _270
REMARK  109  A    between atoms: _270  and  _271
REMARK  110  A    between atoms: _274  and  _276
REMARK  111  A    between atoms: _276  and  _277
REMARK  112  A    between atoms: _276  and  _279
REMARK  113  A    between atoms: _280  and  _281
REMARK  114  A    between atoms: _281  and  _282
REMARK  115  A    between atoms: _291  and  _293
REMARK  116  A    between atoms: _293  and  _294
REMARK  117  A    between atoms: _293  and  _296
REMARK  118  A    between atoms: _296  and  _297
REMARK  119  A    between atoms: _300  and  _302
REMARK  120  A    between atoms: _302  and  _303
REMARK  121  A    between atoms: _302  and  _305
REMARK  122  A    between atoms: _308  and  _310
REMARK  123  A    between atoms: _310  and  _311
REMARK  124  A    between atoms: _310  and  _313
REMARK  125  A    between atoms: _313  and  _314
REMARK  126  A    between atoms: _319  and  _321
REMARK  127  A    between atoms: _321  and  _322
REMARK  128  A    between atoms: _321  and  _324
REMARK  129  A    between atoms: _324  and  _325
REMARK                            x       y       z     vdW  Elec       q    Type
REMARK                         _______ _______ _______ _____ _____    ______ ____
ROOT
ATOM      1  C   SER A   1      59.266  24.486  -5.182  0.00  0.00    +0.241 C 
ATOM      2  O   SER A   1      58.977  25.024  -4.021  0.00  0.00    -0.274 OA
ATOM      3  N   ASP A   2      60.033  23.465  -5.051  0.00  0.00    -0.302 N 
ATOM      4  H   ASP A   2      60.215  22.951  -5.937  0.00  0.00    +0.150 HD
ENDROOT
BRANCH   1   5
ATOM      5  CA  SER A   1      58.657  24.910  -6.468  0.00  0.00    +0.174 C 
BRANCH   5   6
ATOM      6  N   SER A   1      59.500  24.715  -7.624  0.00  0.00    -0.236 NA
ATOM      7  H   SER A   1      59.206  24.120  -8.425  0.00  0.00    +0.142 HD
ENDBRANCH   5   6
BRANCH   5   8
ATOM      8  CB  SER A   1      57.352  24.055  -6.650  0.00  0.00    +0.163 C 
BRANCH   8   9
ATOM      9  OG  SER A   1      56.506  24.853  -7.535  0.00  0.00    -0.380 OA
ATOM     10  H   SER A   1      56.974  24.998  -8.395  0.00  0.00    +0.211 HD
ENDBRANCH   8   9
ENDBRANCH   5   8
ENDBRANCH   1   5
BRANCH   3  11
ATOM     11  CA  ASP A   2      60.685  22.905  -3.898  0.00  0.00    +0.116 C 
BRANCH  11  12
ATOM     12  C   ASP A   2      61.847  23.897  -3.674  0.00  0.00    +0.202 C 
ATOM     13  O   ASP A   2      62.052  24.168  -2.482  0.00  0.00    -0.219 OA
ENDBRANCH  11  12
BRANCH  11  14
ATOM     14  CB  ASP A   2      61.355  21.565  -4.049  0.00  0.00    +0.136 C 
BRANCH  14  15
ATOM     15  CG  ASP A   2      60.590  20.341  -3.992  0.00  0.00    +0.367 C 
ATOM     16  OD2 ASP A   2      59.457  20.513  -3.651  0.00  0.00    -0.246 OA
ATOM     17  OD1 ASP A   2      61.029  19.287  -4.323  0.00  0.00    -0.246 OA
ENDBRANCH  14  15
ENDBRANCH  11  14
ENDBRANCH   3  11
TORSDOF 8
REMARK  Name = ../refined-set-2016/4tln/4tln_pocket.pdb
REMARK  129 active torsions:
REMARK  status: ('A' for Active; 'I' for Inactive)
REMARK    1  A    between atoms: _1  and  _3
REMARK    2  A    between atoms: _3  and  _4
REMARK    3  A    between atoms: _3  and  _6
REMARK    4  A    between atoms: _6  and  _7
REMARK    5  A    between atoms: _12  and  _13
REMARK    6  A    between atoms: _15  and  _17
REMARK    7  A    between atoms: _17  and  _18
REMARK    8  A    between atoms: _17  and  _20
REMARK    9  A    between atoms: _20  and  _21
REMARK   10  A    between atoms: _26  and  _28
REMARK   11  A    between atoms: _28  and  _29
REMARK   12  A    between atoms: _28  and  _31
REMARK   13  A    between atoms: _31  and  _32
REMARK   14  A    between atoms: _37  and  _39
REMARK   15  A    between atoms: _39  and  _40
REMARK   16  A    between atoms: _43  and  _45
REMARK   17  A    between atoms: _45  and  _46
REMARK   18  A    between atoms: _45  and  _48
REMARK   19  A    between atoms: _48  and  _49
REMARK   20  A    between atoms: _55  and  _57
REMARK   21  A    between atoms: _57  and  _58
REMARK   22  A    between atoms: _57  and  _60
REMARK   23  A    between atoms: _60  and  _61
REMARK   24  A    between atoms: _71  and  _73
REMARK   25  A    between atoms: _73  and  _74
REMARK   26  A    between atoms: _73  and  _76
REMARK   27  A    between atoms: _76  and  _77
REMARK   28  A    between atoms: _82  and  _84
REMARK   29  A    between atoms: _84  and  _85
REMARK   30  A    between atoms: _84  and  _87
REMARK   31  A    between atoms: _90  and  _92
REMARK   32  A    between atoms: _92  and  _93
REMARK   33  A    between atoms: _92  and  _95
REMARK   34  A    between atoms: _95  and  _96
REMARK   35  A    between atoms: _101  and  _102
REMARK   36  A    between atoms: _104  and  _106
REMARK   37  A    between atoms: _106  and  _107
REMARK   38  A    between atoms: _106  and  _109
REMARK   39  A    between atoms: _109  and  _110
REMARK   40  A    between atoms: _116  and  _118
REMARK   41  A    between atoms: _118  and  _119
REMARK   42  A    between atoms: _118  and  _121
REMARK   43  A    between atoms: _121  and  _122
REMARK   44  A    between atoms: _125  and  _127
REMARK   45  A    between atoms: _127  and  _128
REMARK   46  A    between atoms: _127  and  _130
REMARK   47  A    between atoms: _130  and  _131
REMARK   48  A    between atoms: _134  and  _136
REMARK   49  A    between atoms: _136  and  _137
REMARK   50  A    between atoms: _136  and  _139
REMARK   51  A    between atoms: _142  and  _144
REMARK   52  A    between atoms: _144  and  _145
REMARK   53  A    between atoms: _144  and  _147
REMARK   54  A    between atoms: _150  and  _152
REMARK   55  A    between atoms: _152  and  _153
REMARK   56  A    between atoms: _152  and  _155
REMARK   57  A    between atoms: _155  and  _156
REMARK   58  A    between atoms: _160  and  ZN_327
REMARK   59  A    between atoms: _161  and  _163
REMARK   60  A    between atoms: _163  and  _164
REMARK   61  A    between atoms: _163  and  _166
REMARK   62  A    between atoms: _166  and  _167
REMARK   63  A    between atoms: _167  and  _168
REMARK   64  A    between atoms: _171  and  _173
REMARK   65  A    between atoms: _173  and  _174
REMARK   66  A    between atoms: _173  and  _176
REMARK   67  A    between atoms: _176  and  _177
REMARK   68  A    between atoms: _180  and  _182
REMARK   69  A    between atoms: _182  and  _183
REMARK   70  A    between atoms: _182  and  _185
REMARK   71  A    between atoms: _185  and  _186
REMARK   72  A    between atoms: _190  and  ZN_327
REMARK   73  A    between atoms: _191  and  _193
REMARK   74  A    between atoms: _193  and  _194
REMARK   75  A    between atoms: _193  and  _196
REMARK   76  A    between atoms: _196  and  _197
REMARK   77  A    between atoms: _202  and  _203
REMARK   78  A    between atoms: _205  and  _207
REMARK   79  A    between atoms: _207  and  _208
REMARK   80  A    between atoms: _207  and  _210
REMARK   81  A    between atoms: _210  and  _211
REMARK   82  A    between atoms: _216  and  _218
REMARK   83  A    between atoms: _218  and  _219
REMARK   84  A    between atoms: _218  and  _221
REMARK   85  A    between atoms: _221  and  _222
REMARK   86  A    between atoms: _222  and  _223
REMARK   87  A    between atoms: _223  and  _224
REMARK   88  A    between atoms: _224  and  ZN_327
REMARK   89  A    between atoms: _226  and  _228
REMARK   90  A    between atoms: _228  and  _229
REMARK   91  A    between atoms: _228  and  _231
REMARK   92  A    between atoms: _231  and  _232
REMARK   93  A    between atoms: _234  and  _236
REMARK   94  A    between atoms: _236  and  _237
REMARK   95  A    between atoms: _236  and  _239
REMARK   96  A    between atoms: _239  and  _240
REMARK   97  A    between atoms: _243  and  _245
REMARK   98  A    between atoms: _245  and  _246
REMARK   99  A    between atoms: _245  and  _248
REMARK  100  A    between atoms: _248  and  _249
REMARK  101  A    between atoms: _252  and  _254
REMARK  102  A    between atoms: _254  and  _255
REMARK  103  A    between atoms: _257  and  _259
REMARK  104  A    between atoms: _259  and  _260
REMARK  105  A    between atoms: _259  and  _262
REMARK  106  A    between atoms: _265  and  _267
REMARK  107  A    between atoms: _267  and  _268
REMARK  108  A    between atoms: _267  and  _270
REMARK  109  A    between atoms: _270  and  _271
REMARK  110  A    between atoms: _274  and  _276
REMARK  111  A    between atoms: _276  and  _277
REMARK  112  A    between atoms: _276  and  _279
REMARK  113  A    between atoms: _280  and  _281
REMARK  114  A    between atoms: _281  and  _282
REMARK  115  A    between atoms: _291  and  _293
REMARK  116  A    between atoms: _293  and  _294
REMARK  117  A    between atoms: _293  and  _296
REMARK  118  A    between atoms: _296  and  _297
REMARK  119  A    between atoms: _300  and  _302
REMARK  120  A    between atoms: _302  and  _303
REMARK  121  A    between atoms: _302  and  _305
REMARK  122  A    between atoms: _308  and  _310
REMARK  123  A    between atoms: _310  and  _311
REMARK  124  A    between atoms: _310  and  _313
REMARK  125  A    between atoms: _313  and  _314
REMARK  126  A    between atoms: _319  and  _321
REMARK  127  A    between atoms: _321  and  _322
REMARK  128  A    between atoms: _321  and  _324
REMARK  129  A    between atoms: _324  and  _325
REMARK                            x       y       z     vdW  Elec       q    Type
REMARK                         _______ _______ _______ _____ _____    ______ ____
ROOT
ATOM      1  CA  ILE A   1      60.239  19.102   2.066  0.00  0.00    +0.145 C 
ENDROOT
BRANCH   1   2
ATOM      2  C   ILE A   1      59.092  18.340   2.833  0.00  0.00    +0.238 C 
ATOM      3  N   GLY A   2      58.199  19.194   3.440  0.00  0.00    -0.297 N 
ATOM      4  H   GLY A   2      58.368  20.218   3.366  0.00  0.00    +0.150 HD
ATOM      5  O   ILE A   1      59.069  17.075   2.816  0.00  0.00    -0.274 OA
BRANCH   3   6
ATOM      6  CA  GLY A   2      57.046  18.744   4.170  0.00  0.00    +0.163 C 
BRANCH   6   7
ATOM      7  C   GLY A   2      57.140  18.118   5.537  0.00  0.00    +0.229 C 
ATOM      8  O   GLY A   2      56.216  17.598   6.118  0.00  0.00    -0.286 OA
ENDBRANCH   6   7
ENDBRANCH   3   6
ENDBRANCH   1   2
BRANCH   1   9
ATOM      9  N   ILE A   1      61.593  18.804   2.455  0.00  0.00    -0.238 NA
ATOM     10  H   ILE A   1      61.965  17.851   2.268  0.00  0.00    +0.142 HD
ENDBRANCH   1   9
BRANCH   1  11
ATOM     11  CB  ILE A   1      59.993  18.967   0.481  0.00  0.00    +0.025 C 
ATOM     12  CG2 ILE A   1      58.599  19.441   0.078  0.00  0.00    +0.002 C 
BRANCH  11  13
ATOM     13  CG1 ILE A   1      61.070  19.738  -0.190  0.00  0.00    +0.002 C 
ATOM     14  CD1 ILE A   1      61.080  21.234   0.007  0.00  0.00    +0.000 C 
ENDBRANCH  11  13
ENDBRANCH   1  11
TORSDOF 6
REMARK  Name = ../refined-set-2016/4tln/4tln_pocket.pdb
REMARK  129 active torsions:
REMARK  status: ('A' for Active; 'I' for Inactive)
REMARK    1  A    between atoms: _1  and  _3
REMARK    2  A    between atoms: _3  and  _4
REMARK    3  A    between atoms: _3  and  _6
REMARK    4  A    between atoms: _6  and  _7
REMARK    5  A    between atoms: _12  and  _13
REMARK    6  A    between atoms: _15  and  _17
REMARK    7  A    between atoms: _17  and  _18
REMARK    8  A    between atoms: _17  and  _20
REMARK    9  A    between atoms: _20  and  _21
REMARK   10  A    between atoms: _26  and  _28
REMARK   11  A    between atoms: _28  and  _29
REMARK   12  A    between atoms: _28  and  _31
REMARK   13  A    between atoms: _31  and  _32
REMARK   14  A    between atoms: _37  and  _39
REMARK   15  A    between atoms: _39  and  _40
REMARK   16  A    between atoms: _43  and  _45
REMARK   17  A    between atoms: _45  and  _46
REMARK   18  A    between atoms: _45  and  _48
REMARK   19  A    between atoms: _48  and  _49
REMARK   20  A    between atoms: _55  and  _57
REMARK   21  A    between atoms: _57  and  _58
REMARK   22  A    between atoms: _57  and  _60
REMARK   23  A    between atoms: _60  and  _61
REMARK   24  A    between atoms: _71  and  _73
REMARK   25  A    between atoms: _73  and  _74
REMARK   26  A    between atoms: _73  and  _76
REMARK   27  A    between atoms: _76  and  _77
REMARK   28  A    between atoms: _82  and  _84
REMARK   29  A    between atoms: _84  and  _85
REMARK   30  A    between atoms: _84  and  _87
REMARK   31  A    between atoms: _90  and  _92
REMARK   32  A    between atoms: _92  and  _93
REMARK   33  A    between atoms: _92  and  _95
REMARK   34  A    between atoms: _95  and  _96
REMARK   35  A    between atoms: _101  and  _102
REMARK   36  A    between atoms: _104  and  _106
REMARK   37  A    between atoms: _106  and  _107
REMARK   38  A    between atoms: _106  and  _109
REMARK   39  A    between atoms: _109  and  _110
REMARK   40  A    between atoms: _116  and  _118
REMARK   41  A    between atoms: _118  and  _119
REMARK   42  A    between atoms: _118  and  _121
REMARK   43  A    between atoms: _121  and  _122
REMARK   44  A    between atoms: _125  and  _127
REMARK   45  A    between atoms: _127  and  _128
REMARK   46  A    between atoms: _127  and  _130
REMARK   47  A    between atoms: _130  and  _131
REMARK   48  A    between atoms: _134  and  _136
REMARK   49  A    between atoms: _136  and  _137
REMARK   50  A    between atoms: _136  and  _139
REMARK   51  A    between atoms: _142  and  _144
REMARK   52  A    between atoms: _144  and  _145
REMARK   53  A    between atoms: _144  and  _147
REMARK   54  A    between atoms: _150  and  _152
REMARK   55  A    between atoms: _152  and  _153
REMARK   56  A    between atoms: _152  and  _155
REMARK   57  A    between atoms: _155  and  _156
REMARK   58  A    between atoms: _160  and  ZN_327
REMARK   59  A    between atoms: _161  and  _163
REMARK   60  A    between atoms: _163  and  _164
REMARK   61  A    between atoms: _163  and  _166
REMARK   62  A    between atoms: _166  and  _167
REMARK   63  A    between atoms: _167  and  _168
REMARK   64  A    between atoms: _171  and  _173
REMARK   65  A    between atoms: _173  and  _174
REMARK   66  A    between atoms: _173  and  _176
REMARK   67  A    between atoms: _176  and  _177
REMARK   68  A    between atoms: _180  and  _182
REMARK   69  A    between atoms: _182  and  _183
REMARK   70  A    between atoms: _182  and  _185
REMARK   71  A    between atoms: _185  and  _186
REMARK   72  A    between atoms: _190  and  ZN_327
REMARK   73  A    between atoms: _191  and  _193
REMARK   74  A    between atoms: _193  and  _194
REMARK   75  A    between atoms: _193  and  _196
REMARK   76  A    between atoms: _196  and  _197
REMARK   77  A    between atoms: _202  and  _203
REMARK   78  A    between atoms: _205  and  _207
REMARK   79  A    between atoms: _207  and  _208
REMARK   80  A    between atoms: _207  and  _210
REMARK   81  A    between atoms: _210  and  _211
REMARK   82  A    between atoms: _216  and  _218
REMARK   83  A    between atoms: _218  and  _219
REMARK   84  A    between atoms: _218  and  _221
REMARK   85  A    between atoms: _221  and  _222
REMARK   86  A    between atoms: _222  and  _223
REMARK   87  A    between atoms: _223  and  _224
REMARK   88  A    between atoms: _224  and  ZN_327
REMARK   89  A    between atoms: _226  and  _228
REMARK   90  A    between atoms: _228  and  _229
REMARK   91  A    between atoms: _228  and  _231
REMARK   92  A    between atoms: _231  and  _232
REMARK   93  A    between atoms: _234  and  _236
REMARK   94  A    between atoms: _236  and  _237
REMARK   95  A    between atoms: _236  and  _239
REMARK   96  A    between atoms: _239  and  _240
REMARK   97  A    between atoms: _243  and  _245
REMARK   98  A    between atoms: _245  and  _246
REMARK   99  A    between atoms: _245  and  _248
REMARK  100  A    between atoms: _248  and  _249
REMARK  101  A    between atoms: _252  and  _254
REMARK  102  A    between atoms: _254  and  _255
REMARK  103  A    between atoms: _257  and  _259
REMARK  104  A    between atoms: _259  and  _260
REMARK  105  A    between atoms: _259  and  _262
REMARK  106  A    between atoms: _265  and  _267
REMARK  107  A    between atoms: _267  and  _268
REMARK  108  A    between atoms: _267  and  _270
REMARK  109  A    between atoms: _270  and  _271
REMARK  110  A    between atoms: _274  and  _276
REMARK  111  A    between atoms: _276  and  _277
REMARK  112  A    between atoms: _276  and  _279
REMARK  113  A    between atoms: _280  and  _281
REMARK  114  A    between atoms: _281  and  _282
REMARK  115  A    between atoms: _291  and  _293
REMARK  116  A    between atoms: _293  and  _294
REMARK  117  A    between atoms: _293  and  _296
REMARK  118  A    between atoms: _296  and  _297
REMARK  119  A    between atoms: _300  and  _302
REMARK  120  A    between atoms: _302  and  _303
REMARK  121  A    between atoms: _302  and  _305
REMARK  122  A    between atoms: _308  and  _310
REMARK  123  A    between atoms: _310  and  _311
REMARK  124  A    between atoms: _310  and  _313
REMARK  125  A    between atoms: _313  and  _314
REMARK  126  A    between atoms: _319  and  _321
REMARK  127  A    between atoms: _321  and  _322
REMARK  128  A    between atoms: _321  and  _324
REMARK  129  A    between atoms: _324  and  _325
REMARK                            x       y       z     vdW  Elec       q    Type
REMARK                         _______ _______ _______ _____ _____    ______ ____
ROOT
ATOM      1  CA  VAL A   1      53.013  18.138   8.082  0.00  0.00    +0.133 C 
ENDROOT
BRANCH   1   2
ATOM      2  CB  VAL A   1      52.239  18.832   6.844  0.00  0.00    +0.023 C 
ATOM      3  CG2 VAL A   1      51.922  20.238   7.252  0.00  0.00    +0.002 C 
ATOM      4  CG1 VAL A   1      52.877  18.837   5.504  0.00  0.00    +0.002 C 
ENDBRANCH   1   2
BRANCH   1   5
ATOM      5  N   VAL A   1      54.333  18.700   8.297  0.00  0.00    -0.239 NA
ATOM      6  H   VAL A   1      54.941  18.741   7.454  0.00  0.00    +0.142 HD
ENDBRANCH   1   5
BRANCH   1   7
ATOM      7  C   VAL A   1      53.161  16.617   7.810  0.00  0.00    +0.224 C 
ATOM      8  O   VAL A   1      52.127  15.959   7.839  0.00  0.00    -0.287 OA
ENDBRANCH   1   7
TORSDOF 3
REMARK  Name = ../refined-set-2016/4tln/4tln_pocket.pdb
REMARK  129 active torsions:
REMARK  status: ('A' for Active; 'I' for Inactive)
REMARK    1  A    between atoms: _1  and  _3
REMARK    2  A    between atoms: _3  and  _4
REMARK    3  A    between atoms: _3  and  _6
REMARK    4  A    between atoms: _6  and  _7
REMARK    5  A    between atoms: _12  and  _13
REMARK    6  A    between atoms: _15  and  _17
REMARK    7  A    between atoms: _17  and  _18
REMARK    8  A    between atoms: _17  and  _20
REMARK    9  A    between atoms: _20  and  _21
REMARK   10  A    between atoms: _26  and  _28
REMARK   11  A    between atoms: _28  and  _29
REMARK   12  A    between atoms: _28  and  _31
REMARK   13  A    between atoms: _31  and  _32
REMARK   14  A    between atoms: _37  and  _39
REMARK   15  A    between atoms: _39  and  _40
REMARK   16  A    between atoms: _43  and  _45
REMARK   17  A    between atoms: _45  and  _46
REMARK   18  A    between atoms: _45  and  _48
REMARK   19  A    between atoms: _48  and  _49
REMARK   20  A    between atoms: _55  and  _57
REMARK   21  A    between atoms: _57  and  _58
REMARK   22  A    between atoms: _57  and  _60
REMARK   23  A    between atoms: _60  and  _61
REMARK   24  A    between atoms: _71  and  _73
REMARK   25  A    between atoms: _73  and  _74
REMARK   26  A    between atoms: _73  and  _76
REMARK   27  A    between atoms: _76  and  _77
REMARK   28  A    between atoms: _82  and  _84
REMARK   29  A    between atoms: _84  and  _85
REMARK   30  A    between atoms: _84  and  _87
REMARK   31  A    between atoms: _90  and  _92
REMARK   32  A    between atoms: _92  and  _93
REMARK   33  A    between atoms: _92  and  _95
REMARK   34  A    between atoms: _95  and  _96
REMARK   35  A    between atoms: _101  and  _102
REMARK   36  A    between atoms: _104  and  _106
REMARK   37  A    between atoms: _106  and  _107
REMARK   38  A    between atoms: _106  and  _109
REMARK   39  A    between atoms: _109  and  _110
REMARK   40  A    between atoms: _116  and  _118
REMARK   41  A    between atoms: _118  and  _119
REMARK   42  A    between atoms: _118  and  _121
REMARK   43  A    between atoms: _121  and  _122
REMARK   44  A    between atoms: _125  and  _127
REMARK   45  A    between atoms: _127  and  _128
REMARK   46  A    between atoms: _127  and  _130
REMARK   47  A    between atoms: _130  and  _131
REMARK   48  A    between atoms: _134  and  _136
REMARK   49  A    between atoms: _136  and  _137
REMARK   50  A    between atoms: _136  and  _139
REMARK   51  A    between atoms: _142  and  _144
REMARK   52  A    between atoms: _144  and  _145
REMARK   53  A    between atoms: _144  and  _147
REMARK   54  A    between atoms: _150  and  _152
REMARK   55  A    between atoms: _152  and  _153
REMARK   56  A    between atoms: _152  and  _155
REMARK   57  A    between atoms: _155  and  _156
REMARK   58  A    between atoms: _160  and  ZN_327
REMARK   59  A    between atoms: _161  and  _163
REMARK   60  A    between atoms: _163  and  _164
REMARK   61  A    between atoms: _163  and  _166
REMARK   62  A    between atoms: _166  and  _167
REMARK   63  A    between atoms: _167  and  _168
REMARK   64  A    between atoms: _171  and  _173
REMARK   65  A    between atoms: _173  and  _174
REMARK   66  A    between atoms: _173  and  _176
REMARK   67  A    between atoms: _176  and  _177
REMARK   68  A    between atoms: _180  and  _182
REMARK   69  A    between atoms: _182  and  _183
REMARK   70  A    between atoms: _182  and  _185
REMARK   71  A    between atoms: _185  and  _186
REMARK   72  A    between atoms: _190  and  ZN_327
REMARK   73  A    between atoms: _191  and  _193
REMARK   74  A    between atoms: _193  and  _194
REMARK   75  A    between atoms: _193  and  _196
REMARK   76  A    between atoms: _196  and  _197
REMARK   77  A    between atoms: _202  and  _203
REMARK   78  A    between atoms: _205  and  _207
REMARK   79  A    between atoms: _207  and  _208
REMARK   80  A    between atoms: _207  and  _210
REMARK   81  A    between atoms: _210  and  _211
REMARK   82  A    between atoms: _216  and  _218
REMARK   83  A    between atoms: _218  and  _219
REMARK   84  A    between atoms: _218  and  _221
REMARK   85  A    between atoms: _221  and  _222
REMARK   86  A    between atoms: _222  and  _223
REMARK   87  A    between atoms: _223  and  _224
REMARK   88  A    between atoms: _224  and  ZN_327
REMARK   89  A    between atoms: _226  and  _228
REMARK   90  A    between atoms: _228  and  _229
REMARK   91  A    between atoms: _228  and  _231
REMARK   92  A    between atoms: _231  and  _232
REMARK   93  A    between atoms: _234  and  _236
REMARK   94  A    between atoms: _236  and  _237
REMARK   95  A    between atoms: _236  and  _239
REMARK   96  A    between atoms: _239  and  _240
REMARK   97  A    between atoms: _243  and  _245
REMARK   98  A    between atoms: _245  and  _246
REMARK   99  A    between atoms: _245  and  _248
REMARK  100  A    between atoms: _248  and  _249
REMARK  101  A    between atoms: _252  and  _254
REMARK  102  A    between atoms: _254  and  _255
REMARK  103  A    between atoms: _257  and  _259
REMARK  104  A    between atoms: _259  and  _260
REMARK  105  A    between atoms: _259  and  _262
REMARK  106  A    between atoms: _265  and  _267
REMARK  107  A    between atoms: _267  and  _268
REMARK  108  A    between atoms: _267  and  _270
REMARK  109  A    between atoms: _270  and  _271
REMARK  110  A    between atoms: _274  and  _276
REMARK  111  A    between atoms: _276  and  _277
REMARK  112  A    between atoms: _276  and  _279
REMARK  113  A    between atoms: _280  and  _281
REMARK  114  A    between atoms: _281  and  _282
REMARK  115  A    between atoms: _291  and  _293
REMARK  116  A    between atoms: _293  and  _294
REMARK  117  A    between atoms: _293  and  _296
REMARK  118  A    between atoms: _296  and  _297
REMARK  119  A    between atoms: _300  and  _302
REMARK  120  A    between atoms: _302  and  _303
REMARK  121  A    between atoms: _302  and  _305
REMARK  122  A    between atoms: _308  and  _310
REMARK  123  A    between atoms: _310  and  _311
REMARK  124  A    between atoms: _310  and  _313
REMARK  125  A    between atoms: _313  and  _314
REMARK  126  A    between atoms: _319  and  _321
REMARK  127  A    between atoms: _321  and  _322
REMARK  128  A    between atoms: _321  and  _324
REMARK  129  A    between atoms: _324  and  _325
REMARK                            x       y       z     vdW  Elec       q    Type
REMARK                         _______ _______ _______ _____ _____    ______ ____
ROOT
ATOM      1  CA  ARG A   2      61.757  14.617   0.139  0.00  0.00    +0.159 C 
ENDROOT
BRANCH   1   3
ATOM      2  C   LEU A   1      59.712  13.647   1.079  0.00  0.00    +0.238 C 
ATOM      3  N   ARG A   2      60.599  14.604   0.879  0.00  0.00    -0.295 N 
ATOM      4  H   ARG A   2      60.385  15.499   1.363  0.00  0.00    +0.150 HD
ATOM      5  O   LEU A   1      59.744  12.467   0.628  0.00  0.00    -0.274 OA
BRANCH   2   6
ATOM      6  CA  LEU A   1      58.566  13.958   2.057  0.00  0.00    +0.145 C 
BRANCH   6   7
ATOM      7  N   LEU A   1      59.036  14.438   3.337  0.00  0.00    -0.238 NA
ATOM      8  H   LEU A   1      58.796  15.401   3.647  0.00  0.00    +0.142 HD
ENDBRANCH   6   7
BRANCH   6   9
ATOM      9  CB  LEU A   1      57.525  14.985   1.614  0.00  0.00    +0.026 C 
BRANCH   9  10
ATOM     10  CG  LEU A   1      56.549  14.423   0.574  0.00  0.00    +0.002 C 
ATOM     11  CD2 LEU A   1      56.070  13.142   1.194  0.00  0.00    +0.000 C 
ATOM     12  CD1 LEU A   1      55.343  15.306   0.315  0.00  0.00    +0.000 C 
ENDBRANCH   9  10
ENDBRANCH   6   9
ENDBRANCH   2   6
ENDBRANCH   1   3
BRANCH   1  13
ATOM     13  C   ARG A   2      62.872  15.419   0.812  0.00  0.00    +0.231 C 
ATOM     14  O   ARG A   2      62.548  16.298   1.592  0.00  0.00    -0.286 OA
ENDBRANCH   1  13
BRANCH   1  15
ATOM     15  CB  ARG A   2      61.591  15.386  -1.229  0.00  0.00    -0.000 C 
ATOM     16  CG  ARG A   2      60.674  14.896  -2.246  0.00  0.00    +0.014 C 
BRANCH  16  17
ATOM     17  CD  ARG A   2      60.444  15.637  -3.507  0.00  0.00    +0.200 C 
BRANCH  17  18
ATOM     18  NE  ARG A   2      59.573  16.820  -3.458  0.00  0.00    -0.261 N 
ATOM     19  CZ  ARG A   2      58.267  16.898  -3.422  0.00  0.00    +0.342 C 
ATOM     20  NH2 ARG A   2      57.448  15.836  -3.395  0.00  0.00    -0.292 N 
ATOM     21 HH21 ARG A   2      56.418  15.974  -3.367  0.00  0.00    +0.255 HD
ATOM     22 HH22 ARG A   2      57.843  14.874  -3.402  0.00  0.00    +0.255 HD
ATOM     23  NH1 ARG A   2      57.642  18.139  -3.428  0.00  0.00    -0.292 N 
ATOM     24 HH11 ARG A   2      56.604  18.199  -3.399  0.00  0.00    +0.255 HD
ATOM     25 HH12 ARG A   2      58.212  19.008  -3.461  0.00  0.00    +0.255 HD
ATOM     26  HE  ARG A   2      60.070  17.734  -3.451  0.00  0.00    +0.259 HD
ENDBRANCH  17  18
ENDBRANCH  16  17
ENDBRANCH   1  15
TORSDOF 9
REMARK  Name = ../refined-set-2016/4tln/4tln_pocket.pdb
REMARK  129 active torsions:
REMARK  status: ('A' for Active; 'I' for Inactive)
REMARK    1  A    between atoms: _1  and  _3
REMARK    2  A    between atoms: _3  and  _4
REMARK    3  A    between atoms: _3  and  _6
REMARK    4  A    between atoms: _6  and  _7
REMARK    5  A    between atoms: _12  and  _13
REMARK    6  A    between atoms: _15  and  _17
REMARK    7  A    between atoms: _17  and  _18
REMARK    8  A    between atoms: _17  and  _20
REMARK    9  A    between atoms: _20  and  _21
REMARK   10  A    between atoms: _26  and  _28
REMARK   11  A    between atoms: _28  and  _29
REMARK   12  A    between atoms: _28  and  _31
REMARK   13  A    between atoms: _31  and  _32
REMARK   14  A    between atoms: _37  and  _39
REMARK   15  A    between atoms: _39  and  _40
REMARK   16  A    between atoms: _43  and  _45
REMARK   17  A    between atoms: _45  and  _46
REMARK   18  A    between atoms: _45  and  _48
REMARK   19  A    between atoms: _48  and  _49
REMARK   20  A    between atoms: _55  and  _57
REMARK   21  A    between atoms: _57  and  _58
REMARK   22  A    between atoms: _57  and  _60
REMARK   23  A    between atoms: _60  and  _61
REMARK   24  A    between atoms: _71  and  _73
REMARK   25  A    between atoms: _73  and  _74
REMARK   26  A    between atoms: _73  and  _76
REMARK   27  A    between atoms: _76  and  _77
REMARK   28  A    between atoms: _82  and  _84
REMARK   29  A    between atoms: _84  and  _85
REMARK   30  A    between atoms: _84  and  _87
REMARK   31  A    between atoms: _90  and  _92
REMARK   32  A    between atoms: _92  and  _93
REMARK   33  A    between atoms: _92  and  _95
REMARK   34  A    between atoms: _95  and  _96
REMARK   35  A    between atoms: _101  and  _102
REMARK   36  A    between atoms: _104  and  _106
REMARK   37  A    between atoms: _106  and  _107
REMARK   38  A    between atoms: _106  and  _109
REMARK   39  A    between atoms: _109  and  _110
REMARK   40  A    between atoms: _116  and  _118
REMARK   41  A    between atoms: _118  and  _119
REMARK   42  A    between atoms: _118  and  _121
REMARK   43  A    between atoms: _121  and  _122
REMARK   44  A    between atoms: _125  and  _127
REMARK   45  A    between atoms: _127  and  _128
REMARK   46  A    between atoms: _127  and  _130
REMARK   47  A    between atoms: _130  and  _131
REMARK   48  A    between atoms: _134  and  _136
REMARK   49  A    between atoms: _136  and  _137
REMARK   50  A    between atoms: _136  and  _139
REMARK   51  A    between atoms: _142  and  _144
REMARK   52  A    between atoms: _144  and  _145
REMARK   53  A    between atoms: _144  and  _147
REMARK   54  A    between atoms: _150  and  _152
REMARK   55  A    between atoms: _152  and  _153
REMARK   56  A    between atoms: _152  and  _155
REMARK   57  A    between atoms: _155  and  _156
REMARK   58  A    between atoms: _160  and  ZN_327
REMARK   59  A    between atoms: _161  and  _163
REMARK   60  A    between atoms: _163  and  _164
REMARK   61  A    between atoms: _163  and  _166
REMARK   62  A    between atoms: _166  and  _167
REMARK   63  A    between atoms: _167  and  _168
REMARK   64  A    between atoms: _171  and  _173
REMARK   65  A    between atoms: _173  and  _174
REMARK   66  A    between atoms: _173  and  _176
REMARK   67  A    between atoms: _176  and  _177
REMARK   68  A    between atoms: _180  and  _182
REMARK   69  A    between atoms: _182  and  _183
REMARK   70  A    between atoms: _182  and  _185
REMARK   71  A    between atoms: _185  and  _186
REMARK   72  A    between atoms: _190  and  ZN_327
REMARK   73  A    between atoms: _191  and  _193
REMARK   74  A    between atoms: _193  and  _194
REMARK   75  A    between atoms: _193  and  _196
REMARK   76  A    between atoms: _196  and  _197
REMARK   77  A    between atoms: _202  and  _203
REMARK   78  A    between atoms: _205  and  _207
REMARK   79  A    between atoms: _207  and  _208
REMARK   80  A    between atoms: _207  and  _210
REMARK   81  A    between atoms: _210  and  _211
REMARK   82  A    between atoms: _216  and  _218
REMARK   83  A    between atoms: _218  and  _219
REMARK   84  A    between atoms: _218  and  _221
REMARK   85  A    between atoms: _221  and  _222
REMARK   86  A    between atoms: _222  and  _223
REMARK   87  A    between atoms: _223  and  _224
REMARK   88  A    between atoms: _224  and  ZN_327
REMARK   89  A    between atoms: _226  and  _228
REMARK   90  A    between atoms: _228  and  _229
REMARK   91  A    between atoms: _228  and  _231
REMARK   92  A    between atoms: _231  and  _232
REMARK   93  A    between atoms: _234  and  _236
REMARK   94  A    between atoms: _236  and  _237
REMARK   95  A    between atoms: _236  and  _239
REMARK   96  A    between atoms: _239  and  _240
REMARK   97  A    between atoms: _243  and  _245
REMARK   98  A    between atoms: _245  and  _246
REMARK   99  A    between atoms: _245  and  _248
REMARK  100  A    between atoms: _248  and  _249
REMARK  101  A    between atoms: _252  and  _254
REMARK  102  A    between atoms: _254  and  _255
REMARK  103  A    between atoms: _257  and  _259
REMARK  104  A    between atoms: _259  and  _260
REMARK  105  A    between atoms: _259  and  _262
REMARK  106  A    between atoms: _265  and  _267
REMARK  107  A    between atoms: _267  and  _268
REMARK  108  A    between atoms: _267  and  _270
REMARK  109  A    between atoms: _270  and  _271
REMARK  110  A    between atoms: _274  and  _276
REMARK  111  A    between atoms: _276  and  _277
REMARK  112  A    between atoms: _276  and  _279
REMARK  113  A    between atoms: _280  and  _281
REMARK  114  A    between atoms: _281  and  _282
REMARK  115  A    between atoms: _291  and  _293
REMARK  116  A    between atoms: _293  and  _294
REMARK  117  A    between atoms: _293  and  _296
REMARK  118  A    between atoms: _296  and  _297
REMARK  119  A    between atoms: _300  and  _302
REMARK  120  A    between atoms: _302  and  _303
REMARK  121  A    between atoms: _302  and  _305
REMARK  122  A    between atoms: _308  and  _310
REMARK  123  A    between atoms: _310  and  _311
REMARK  124  A    between atoms: _310  and  _313
REMARK  125  A    between atoms: _313  and  _314
REMARK  126  A    between atoms: _319  and  _321
REMARK  127  A    between atoms: _321  and  _322
REMARK  128  A    between atoms: _321  and  _324
REMARK  129  A    between atoms: _324  and  _325
REMARK                            x       y       z     vdW  Elec       q    Type
REMARK                         _______ _______ _______ _____ _____    ______ ____
ROOT
ATOM      1  CA  ASP A   1      54.220  10.167 -11.904  0.00  0.00    +0.144 C 
ENDROOT
BRANCH   1   2
ATOM      2  N   ASP A   1      54.017   8.756 -12.308  0.00  0.00    -0.239 NA
ATOM      3  H   ASP A   1      53.137   8.282 -12.022  0.00  0.00    +0.142 HD
ENDBRANCH   1   2
BRANCH   1   4
ATOM      4  C   ASP A   1      54.602  11.104 -13.002  0.00  0.00    +0.225 C 
ATOM      5  O   ASP A   1      55.504  11.897 -12.799  0.00  0.00    -0.287 OA
ENDBRANCH   1   4
BRANCH   1   6
ATOM      6  CB  ASP A   1      55.499  10.142 -10.932  0.00  0.00    +0.139 C 
BRANCH   6   7
ATOM      7  CG  ASP A   1      55.663  11.367 -10.136  0.00  0.00    +0.367 C 
ATOM      8  OD2 ASP A   1      54.709  12.122  -9.737  0.00  0.00    -0.246 OA
ATOM      9  OD1 ASP A   1      56.820  11.630  -9.813  0.00  0.00    -0.246 OA
ENDBRANCH   6   7
ENDBRANCH   1   6
TORSDOF 4
REMARK  Name = ../refined-set-2016/4tln/4tln_pocket.pdb
REMARK  129 active torsions:
REMARK  status: ('A' for Active; 'I' for Inactive)
REMARK    1  A    between atoms: _1  and  _3
REMARK    2  A    between atoms: _3  and  _4
REMARK    3  A    between atoms: _3  and  _6
REMARK    4  A    between atoms: _6  and  _7
REMARK    5  A    between atoms: _12  and  _13
REMARK    6  A    between atoms: _15  and  _17
REMARK    7  A    between atoms: _17  and  _18
REMARK    8  A    between atoms: _17  and  _20
REMARK    9  A    between atoms: _20  and  _21
REMARK   10  A    between atoms: _26  and  _28
REMARK   11  A    between atoms: _28  and  _29
REMARK   12  A    between atoms: _28  and  _31
REMARK   13  A    between atoms: _31  and  _32
REMARK   14  A    between atoms: _37  and  _39
REMARK   15  A    between atoms: _39  and  _40
REMARK   16  A    between atoms: _43  and  _45
REMARK   17  A    between atoms: _45  and  _46
REMARK   18  A    between atoms: _45  and  _48
REMARK   19  A    between atoms: _48  and  _49
REMARK   20  A    between atoms: _55  and  _57
REMARK   21  A    between atoms: _57  and  _58
REMARK   22  A    between atoms: _57  and  _60
REMARK   23  A    between atoms: _60  and  _61
REMARK   24  A    between atoms: _71  and  _73
REMARK   25  A    between atoms: _73  and  _74
REMARK   26  A    between atoms: _73  and  _76
REMARK   27  A    between atoms: _76  and  _77
REMARK   28  A    between atoms: _82  and  _84
REMARK   29  A    between atoms: _84  and  _85
REMARK   30  A    between atoms: _84  and  _87
REMARK   31  A    between atoms: _90  and  _92
REMARK   32  A    between atoms: _92  and  _93
REMARK   33  A    between atoms: _92  and  _95
REMARK   34  A    between atoms: _95  and  _96
REMARK   35  A    between atoms: _101  and  _102
REMARK   36  A    between atoms: _104  and  _106
REMARK   37  A    between atoms: _106  and  _107
REMARK   38  A    between atoms: _106  and  _109
REMARK   39  A    between atoms: _109  and  _110
REMARK   40  A    between atoms: _116  and  _118
REMARK   41  A    between atoms: _118  and  _119
REMARK   42  A    between atoms: _118  and  _121
REMARK   43  A    between atoms: _121  and  _122
REMARK   44  A    between atoms: _125  and  _127
REMARK   45  A    between atoms: _127  and  _128
REMARK   46  A    between atoms: _127  and  _130
REMARK   47  A    between atoms: _130  and  _131
REMARK   48  A    between atoms: _134  and  _136
REMARK   49  A    between atoms: _136  and  _137
REMARK   50  A    between atoms: _136  and  _139
REMARK   51  A    between atoms: _142  and  _144
REMARK   52  A    between atoms: _144  and  _145
REMARK   53  A    between atoms: _144  and  _147
REMARK   54  A    between atoms: _150  and  _152
REMARK   55  A    between atoms: _152  and  _153
REMARK   56  A    between atoms: _152  and  _155
REMARK   57  A    between atoms: _155  and  _156
REMARK   58  A    between atoms: _160  and  ZN_327
REMARK   59  A    between atoms: _161  and  _163
REMARK   60  A    between atoms: _163  and  _164
REMARK   61  A    between atoms: _163  and  _166
REMARK   62  A    between atoms: _166  and  _167
REMARK   63  A    between atoms: _167  and  _168
REMARK   64  A    between atoms: _171  and  _173
REMARK   65  A    between atoms: _173  and  _174
REMARK   66  A    between atoms: _173  and  _176
REMARK   67  A    between atoms: _176  and  _177
REMARK   68  A    between atoms: _180  and  _182
REMARK   69  A    between atoms: _182  and  _183
REMARK   70  A    between atoms: _182  and  _185
REMARK   71  A    between atoms: _185  and  _186
REMARK   72  A    between atoms: _190  and  ZN_327
REMARK   73  A    between atoms: _191  and  _193
REMARK   74  A    between atoms: _193  and  _194
REMARK   75  A    between atoms: _193  and  _196
REMARK   76  A    between atoms: _196  and  _197
REMARK   77  A    between atoms: _202  and  _203
REMARK   78  A    between atoms: _205  and  _207
REMARK   79  A    between atoms: _207  and  _208
REMARK   80  A    between atoms: _207  and  _210
REMARK   81  A    between atoms: _210  and  _211
REMARK   82  A    between atoms: _216  and  _218
REMARK   83  A    between atoms: _218  and  _219
REMARK   84  A    between atoms: _218  and  _221
REMARK   85  A    between atoms: _221  and  _222
REMARK   86  A    between atoms: _222  and  _223
REMARK   87  A    between atoms: _223  and  _224
REMARK   88  A    between atoms: _224  and  ZN_327
REMARK   89  A    between atoms: _226  and  _228
REMARK   90  A    between atoms: _228  and  _229
REMARK   91  A    between atoms: _228  and  _231
REMARK   92  A    between atoms: _231  and  _232
REMARK   93  A    between atoms: _234  and  _236
REMARK   94  A    between atoms: _236  and  _237
REMARK   95  A    between atoms: _236  and  _239
REMARK   96  A    between atoms: _239  and  _240
REMARK   97  A    between atoms: _243  and  _245
REMARK   98  A    between atoms: _245  and  _246
REMARK   99  A    between atoms: _245  and  _248
REMARK  100  A    between atoms: _248  and  _249
REMARK  101  A    between atoms: _252  and  _254
REMARK  102  A    between atoms: _254  and  _255
REMARK  103  A    between atoms: _257  and  _259
REMARK  104  A    between atoms: _259  and  _260
REMARK  105  A    between atoms: _259  and  _262
REMARK  106  A    between atoms: _265  and  _267
REMARK  107  A    between atoms: _267  and  _268
REMARK  108  A    between atoms: _267  and  _270
REMARK  109  A    between atoms: _270  and  _271
REMARK  110  A    between atoms: _274  and  _276
REMARK  111  A    between atoms: _276  and  _277
REMARK  112  A    between atoms: _276  and  _279
REMARK  113  A    between atoms: _280  and  _281
REMARK  114  A    between atoms: _281  and  _282
REMARK  115  A    between atoms: _291  and  _293
REMARK  116  A    between atoms: _293  and  _294
REMARK  117  A    between atoms: _293  and  _296
REMARK  118  A    between atoms: _296  and  _297
REMARK  119  A    between atoms: _300  and  _302
REMARK  120  A    between atoms: _302  and  _303
REMARK  121  A    between atoms: _302  and  _305
REMARK  122  A    between atoms: _308  and  _310
REMARK  123  A    between atoms: _310  and  _311
REMARK  124  A    between atoms: _310  and  _313
REMARK  125  A    between atoms: _313  and  _314
REMARK  126  A    between atoms: _319  and  _321
REMARK  127  A    between atoms: _321  and  _322
REMARK  128  A    between atoms: _321  and  _324
REMARK  129  A    between atoms: _324  and  _325
REMARK                            x       y       z     vdW  Elec       q    Type
REMARK                         _______ _______ _______ _____ _____    ______ ____
ROOT
ATOM      1  C   UNK A   1      58.604  14.870 -10.641  0.00  0.00    +0.241 C 
ATOM      2  N   HIS A   2      58.146  14.019  -9.767  0.00  0.00    -0.298 N 
ATOM      3  H   HIS A   2      57.531  13.240 -10.078  0.00  0.00    +0.150 HD
ATOM      4  O   UNK A   1      59.351  15.837 -10.366  0.00  0.00    -0.274 OA
ENDROOT
BRANCH   1   5
ATOM      5  C   UNK A   1      58.223  14.592 -12.070  0.00  0.00    +0.173 C 
BRANCH   5   6
ATOM      6  C   UNK A   1      56.863  15.149 -12.613  0.00  0.00    +0.149 C 
ATOM      7  O   UNK A   1      55.839  15.051 -11.868  0.00  0.00    -0.224 OA
ATOM      8  C   UNK A   1      56.768  16.546 -12.177  0.00  0.00    +0.035 C 
ATOM      9  C   UNK A   1      56.672  15.076 -14.072  0.00  0.00    +0.035 C 
ENDBRANCH   5   6
BRANCH   5  10
ATOM     10  N   UNK A   1      58.171  13.155 -12.390  0.00  0.00    -0.236 NA
ATOM     11  H   UNK A   1      57.249  12.830 -12.744  0.00  0.00    +0.142 HD
ENDBRANCH   5  10
ENDBRANCH   1   5
BRANCH   2  12
ATOM     12  CA  HIS A   2      58.484  14.148  -8.376  0.00  0.00    +0.143 C 
BRANCH  12  13
ATOM     13  C   HIS A   2      59.678  13.283  -7.985  0.00  0.00    +0.227 C 
ATOM     14  O   HIS A   2      60.082  13.338  -6.817  0.00  0.00    -0.286 OA
ENDBRANCH  12  13
BRANCH  12  15
ATOM     15  CB  HIS A   2      57.407  13.849  -7.218  0.00  0.00    +0.075 C 
BRANCH  15  16
ATOM     16  CG  HIS A   2      56.159  14.642  -7.471  0.00  0.00    +0.082 A 
ATOM     17  CD2 HIS A   2      55.673  15.776  -6.905  0.00  0.00    +0.115 A 
ATOM     18  NE2 HIS A   2      54.494  16.058  -7.486  0.00  0.00    -0.221 NA
ATOM     19  CE1 HIS A   2      54.247  15.122  -8.454  0.00  0.00    +0.199 A 
ATOM     20  ND1 HIS A   2      55.286  14.243  -8.418  0.00  0.00    -0.227 NA
ENDBRANCH  15  16
ENDBRANCH  12  15
ENDBRANCH   2  12
TORSDOF 7
REMARK  Name = ../refined-set-2016/4tln/4tln_pocket.pdb
REMARK  129 active torsions:
REMARK  status: ('A' for Active; 'I' for Inactive)
REMARK    1  A    between atoms: _1  and  _3
REMARK    2  A    between atoms: _3  and  _4
REMARK    3  A    between atoms: _3  and  _6
REMARK    4  A    between atoms: _6  and  _7
REMARK    5  A    between atoms: _12  and  _13
REMARK    6  A    between atoms: _15  and  _17
REMARK    7  A    between atoms: _17  and  _18
REMARK    8  A    between atoms: _17  and  _20
REMARK    9  A    between atoms: _20  and  _21
REMARK   10  A    between atoms: _26  and  _28
REMARK   11  A    between atoms: _28  and  _29
REMARK   12  A    between atoms: _28  and  _31
REMARK   13  A    between atoms: _31  and  _32
REMARK   14  A    between atoms: _37  and  _39
REMARK   15  A    between atoms: _39  and  _40
REMARK   16  A    between atoms: _43  and  _45
REMARK   17  A    between atoms: _45  and  _46
REMARK   18  A    between atoms: _45  and  _48
REMARK   19  A    between atoms: _48  and  _49
REMARK   20  A    between atoms: _55  and  _57
REMARK   21  A    between atoms: _57  and  _58
REMARK   22  A    between atoms: _57  and  _60
REMARK   23  A    between atoms: _60  and  _61
REMARK   24  A    between atoms: _71  and  _73
REMARK   25  A    between atoms: _73  and  _74
REMARK   26  A    between atoms: _73  and  _76
REMARK   27  A    between atoms: _76  and  _77
REMARK   28  A    between atoms: _82  and  _84
REMARK   29  A    between atoms: _84  and  _85
REMARK   30  A    between atoms: _84  and  _87
REMARK   31  A    between atoms: _90  and  _92
REMARK   32  A    between atoms: _92  and  _93
REMARK   33  A    between atoms: _92  and  _95
REMARK   34  A    between atoms: _95  and  _96
REMARK   35  A    between atoms: _101  and  _102
REMARK   36  A    between atoms: _104  and  _106
REMARK   37  A    between atoms: _106  and  _107
REMARK   38  A    between atoms: _106  and  _109
REMARK   39  A    between atoms: _109  and  _110
REMARK   40  A    between atoms: _116  and  _118
REMARK   41  A    between atoms: _118  and  _119
REMARK   42  A    between atoms: _118  and  _121
REMARK   43  A    between atoms: _121  and  _122
REMARK   44  A    between atoms: _125  and  _127
REMARK   45  A    between atoms: _127  and  _128
REMARK   46  A    between atoms: _127  and  _130
REMARK   47  A    between atoms: _130  and  _131
REMARK   48  A    between atoms: _134  and  _136
REMARK   49  A    between atoms: _136  and  _137
REMARK   50  A    between atoms: _136  and  _139
REMARK   51  A    between atoms: _142  and  _144
REMARK   52  A    between atoms: _144  and  _145
REMARK   53  A    between atoms: _144  and  _147
REMARK   54  A    between atoms: _150  and  _152
REMARK   55  A    between atoms: _152  and  _153
REMARK   56  A    between atoms: _152  and  _155
REMARK   57  A    between atoms: _155  and  _156
REMARK   58  A    between atoms: _160  and  ZN_327
REMARK   59  A    between atoms: _161  and  _163
REMARK   60  A    between atoms: _163  and  _164
REMARK   61  A    between atoms: _163  and  _166
REMARK   62  A    between atoms: _166  and  _167
REMARK   63  A    between atoms: _167  and  _168
REMARK   64  A    between atoms: _171  and  _173
REMARK   65  A    between atoms: _173  and  _174
REMARK   66  A    between atoms: _173  and  _176
REMARK   67  A    between atoms: _176  and  _177
REMARK   68  A    between atoms: _180  and  _182
REMARK   69  A    between atoms: _182  and  _183
REMARK   70  A    between atoms: _182  and  _185
REMARK   71  A    between atoms: _185  and  _186
REMARK   72  A    between atoms: _190  and  ZN_327
REMARK   73  A    between atoms: _191  and  _193
REMARK   74  A    between atoms: _193  and  _194
REMARK   75  A    between atoms: _193  and  _196
REMARK   76  A    between atoms: _196  and  _197
REMARK   77  A    between atoms: _202  and  _203
REMARK   78  A    between atoms: _205  and  _207
REMARK   79  A    between atoms: _207  and  _208
REMARK   80  A    between atoms: _207  and  _210
REMARK   81  A    between atoms: _210  and  _211
REMARK   82  A    between atoms: _216  and  _218
REMARK   83  A    between atoms: _218  and  _219
REMARK   84  A    between atoms: _218  and  _221
REMARK   85  A    between atoms: _221  and  _222
REMARK   86  A    between atoms: _222  and  _223
REMARK   87  A    between atoms: _223  and  _224
REMARK   88  A    between atoms: _224  and  ZN_327
REMARK   89  A    between atoms: _226  and  _228
REMARK   90  A    between atoms: _228  and  _229
REMARK   91  A    between atoms: _228  and  _231
REMARK   92  A    between atoms: _231  and  _232
REMARK   93  A    between atoms: _234  and  _236
REMARK   94  A    between atoms: _236  and  _237
REMARK   95  A    between atoms: _236  and  _239
REMARK   96  A    between atoms: _239  and  _240
REMARK   97  A    between atoms: _243  and  _245
REMARK   98  A    between atoms: _245  and  _246
REMARK   99  A    between atoms: _245  and  _248
REMARK  100  A    between atoms: _248  and  _249
REMARK  101  A    between atoms: _252  and  _254
REMARK  102  A    between atoms: _254  and  _255
REMARK  103  A    between atoms: _257  and  _259
REMARK  104  A    between atoms: _259  and  _260
REMARK  105  A    between atoms: _259  and  _262
REMARK  106  A    between atoms: _265  and  _267
REMARK  107  A    between atoms: _267  and  _268
REMARK  108  A    between atoms: _267  and  _270
REMARK  109  A    between atoms: _270  and  _271
REMARK  110  A    between atoms: _274  and  _276
REMARK  111  A    between atoms: _276  and  _277
REMARK  112  A    between atoms: _276  and  _279
REMARK  113  A    between atoms: _280  and  _281
REMARK  114  A    between atoms: _281  and  _282
REMARK  115  A    between atoms: _291  and  _293
REMARK  116  A    between atoms: _293  and  _294
REMARK  117  A    between atoms: _293  and  _296
REMARK  118  A    between atoms: _296  and  _297
REMARK  119  A    between atoms: _300  and  _302
REMARK  120  A    between atoms: _302  and  _303
REMARK  121  A    between atoms: _302  and  _305
REMARK  122  A    between atoms: _308  and  _310
REMARK  123  A    between atoms: _310  and  _311
REMARK  124  A    between atoms: _310  and  _313
REMARK  125  A    between atoms: _313  and  _314
REMARK  126  A    between atoms: _319  and  _321
REMARK  127  A    between atoms: _321  and  _322
REMARK  128  A    between atoms: _321  and  _324
REMARK  129  A    between atoms: _324  and  _325
REMARK                            x       y       z     vdW  Elec       q    Type
REMARK                         _______ _______ _______ _____ _____    ______ ____
ROOT
ATOM      1  CA  SER A   1      63.241  16.544  -9.371  0.00  0.00    +0.163 C 
ENDROOT
BRANCH   1   2
ATOM      2  N   SER A   1      63.085  15.160  -9.915  0.00  0.00    -0.237 NA
ATOM      3  H   SER A   1      62.211  14.624  -9.740  0.00  0.00    +0.142 HD
ENDBRANCH   1   2
BRANCH   1   4
ATOM      4  C   SER A   1      64.361  16.476  -8.438  0.00  0.00    +0.227 C 
ATOM      5  O   SER A   1      65.054  17.403  -8.218  0.00  0.00    -0.287 OA
ENDBRANCH   1   4
BRANCH   1   6
ATOM      6  CB  SER A   1      61.968  17.075  -8.734  0.00  0.00    +0.162 C 
BRANCH   6   7
ATOM      7  OG  SER A   1      61.741  16.315  -7.651  0.00  0.00    -0.380 OA
ATOM      8  H   SER A   1      60.916  16.624  -7.199  0.00  0.00    +0.211 HD
ENDBRANCH   6   7
ENDBRANCH   1   6
TORSDOF 4
REMARK  Name = ../refined-set-2016/4tln/4tln_pocket.pdb
REMARK  129 active torsions:
REMARK  status: ('A' for Active; 'I' for Inactive)
REMARK    1  A    between atoms: _1  and  _3
REMARK    2  A    between atoms: _3  and  _4
REMARK    3  A    between atoms: _3  and  _6
REMARK    4  A    between atoms: _6  and  _7
REMARK    5  A    between atoms: _12  and  _13
REMARK    6  A    between atoms: _15  and  _17
REMARK    7  A    between atoms: _17  and  _18
REMARK    8  A    between atoms: _17  and  _20
REMARK    9  A    between atoms: _20  and  _21
REMARK   10  A    between atoms: _26  and  _28
REMARK   11  A    between atoms: _28  and  _29
REMARK   12  A    between atoms: _28  and  _31
REMARK   13  A    between atoms: _31  and  _32
REMARK   14  A    between atoms: _37  and  _39
REMARK   15  A    between atoms: _39  and  _40
REMARK   16  A    between atoms: _43  and  _45
REMARK   17  A    between atoms: _45  and  _46
REMARK   18  A    between atoms: _45  and  _48
REMARK   19  A    between atoms: _48  and  _49
REMARK   20  A    between atoms: _55  and  _57
REMARK   21  A    between atoms: _57  and  _58
REMARK   22  A    between atoms: _57  and  _60
REMARK   23  A    between atoms: _60  and  _61
REMARK   24  A    between atoms: _71  and  _73
REMARK   25  A    between atoms: _73  and  _74
REMARK   26  A    between atoms: _73  and  _76
REMARK   27  A    between atoms: _76  and  _77
REMARK   28  A    between atoms: _82  and  _84
REMARK   29  A    between atoms: _84  and  _85
REMARK   30  A    between atoms: _84  and  _87
REMARK   31  A    between atoms: _90  and  _92
REMARK   32  A    between atoms: _92  and  _93
REMARK   33  A    between atoms: _92  and  _95
REMARK   34  A    between atoms: _95  and  _96
REMARK   35  A    between atoms: _101  and  _102
REMARK   36  A    between atoms: _104  and  _106
REMARK   37  A    between atoms: _106  and  _107
REMARK   38  A    between atoms: _106  and  _109
REMARK   39  A    between atoms: _109  and  _110
REMARK   40  A    between atoms: _116  and  _118
REMARK   41  A    between atoms: _118  and  _119
REMARK   42  A    between atoms: _118  and  _121
REMARK   43  A    between atoms: _121  and  _122
REMARK   44  A    between atoms: _125  and  _127
REMARK   45  A    between atoms: _127  and  _128
REMARK   46  A    between atoms: _127  and  _130
REMARK   47  A    between atoms: _130  and  _131
REMARK   48  A    between atoms: _134  and  _136
REMARK   49  A    between atoms: _136  and  _137
REMARK   50  A    between atoms: _136  and  _139
REMARK   51  A    between atoms: _142  and  _144
REMARK   52  A    between atoms: _144  and  _145
REMARK   53  A    between atoms: _144  and  _147
REMARK   54  A    between atoms: _150  and  _152
REMARK   55  A    between atoms: _152  and  _153
REMARK   56  A    between atoms: _152  and  _155
REMARK   57  A    between atoms: _155  and  _156
REMARK   58  A    between atoms: _160  and  ZN_327
REMARK   59  A    between atoms: _161  and  _163
REMARK   60  A    between atoms: _163  and  _164
REMARK   61  A    between atoms: _163  and  _166
REMARK   62  A    between atoms: _166  and  _167
REMARK   63  A    between atoms: _167  and  _168
REMARK   64  A    between atoms: _171  and  _173
REMARK   65  A    between atoms: _173  and  _174
REMARK   66  A    between atoms: _173  and  _176
REMARK   67  A    between atoms: _176  and  _177
REMARK   68  A    between atoms: _180  and  _182
REMARK   69  A    between atoms: _182  and  _183
REMARK   70  A    between atoms: _182  and  _185
REMARK   71  A    between atoms: _185  and  _186
REMARK   72  A    between atoms: _190  and  ZN_327
REMARK   73  A    between atoms: _191  and  _193
REMARK   74  A    between atoms: _193  and  _194
REMARK   75  A    between atoms: _193  and  _196
REMARK   76  A    between atoms: _196  and  _197
REMARK   77  A    between atoms: _202  and  _203
REMARK   78  A    between atoms: _205  and  _207
REMARK   79  A    between atoms: _207  and  _208
REMARK   80  A    between atoms: _207  and  _210
REMARK   81  A    between atoms: _210  and  _211
REMARK   82  A    between atoms: _216  and  _218
REMARK   83  A    between atoms: _218  and  _219
REMARK   84  A    between atoms: _218  and  _221
REMARK   85  A    between atoms: _221  and  _222
REMARK   86  A    between atoms: _222  and  _223
REMARK   87  A    between atoms: _223  and  _224
REMARK   88  A    between atoms: _224  and  ZN_327
REMARK   89  A    between atoms: _226  and  _228
REMARK   90  A    between atoms: _228  and  _229
REMARK   91  A    between atoms: _228  and  _231
REMARK   92  A    between atoms: _231  and  _232
REMARK   93  A    between atoms: _234  and  _236
REMARK   94  A    between atoms: _236  and  _237
REMARK   95  A    between atoms: _236  and  _239
REMARK   96  A    between atoms: _239  and  _240
REMARK   97  A    between atoms: _243  and  _245
REMARK   98  A    between atoms: _245  and  _246
REMARK   99  A    between atoms: _245  and  _248
REMARK  100  A    between atoms: _248  and  _249
REMARK  101  A    between atoms: _252  and  _254
REMARK  102  A    between atoms: _254  and  _255
REMARK  103  A    between atoms: _257  and  _259
REMARK  104  A    between atoms: _259  and  _260
REMARK  105  A    between atoms: _259  and  _262
REMARK  106  A    between atoms: _265  and  _267
REMARK  107  A    between atoms: _267  and  _268
REMARK  108  A    between atoms: _267  and  _270
REMARK  109  A    between atoms: _270  and  _271
REMARK  110  A    between atoms: _274  and  _276
REMARK  111  A    between atoms: _276  and  _277
REMARK  112  A    between atoms: _276  and  _279
REMARK  113  A    between atoms: _280  and  _281
REMARK  114  A    between atoms: _281  and  _282
REMARK  115  A    between atoms: _291  and  _293
REMARK  116  A    between atoms: _293  and  _294
REMARK  117  A    between atoms: _293  and  _296
REMARK  118  A    between atoms: _296  and  _297
REMARK  119  A    between atoms: _300  and  _302
REMARK  120  A    between atoms: _302  and  _303
REMARK  121  A    between atoms: _302  and  _305
REMARK  122  A    between atoms: _308  and  _310
REMARK  123  A    between atoms: _310  and  _311
REMARK  124  A    between atoms: _310  and  _313
REMARK  125  A    between atoms: _313  and  _314
REMARK  126  A    between atoms: _319  and  _321
REMARK  127  A    between atoms: _321  and  _322
REMARK  128  A    between atoms: _321  and  _324
REMARK  129  A    between atoms: _324  and  _325
REMARK                            x       y       z     vdW  Elec       q    Type
REMARK                         _______ _______ _______ _____ _____    ______ ____
ROOT
ATOM      1  O   HOH     1      57.163  25.612 -10.064  0.00  0.00    +0.000 OA
ENDROOT
TORSDOF 0
REMARK  Name = ../refined-set-2016/4tln/4tln_pocket.pdb
REMARK  129 active torsions:
REMARK  status: ('A' for Active; 'I' for Inactive)
REMARK    1  A    between atoms: _1  and  _3
REMARK    2  A    between atoms: _3  and  _4
REMARK    3  A    between atoms: _3  and  _6
REMARK    4  A    between atoms: _6  and  _7
REMARK    5  A    between atoms: _12  and  _13
REMARK    6  A    between atoms: _15  and  _17
REMARK    7  A    between atoms: _17  and  _18
REMARK    8  A    between atoms: _17  and  _20
REMARK    9  A    between atoms: _20  and  _21
REMARK   10  A    between atoms: _26  and  _28
REMARK   11  A    between atoms: _28  and  _29
REMARK   12  A    between atoms: _28  and  _31
REMARK   13  A    between atoms: _31  and  _32
REMARK   14  A    between atoms: _37  and  _39
REMARK   15  A    between atoms: _39  and  _40
REMARK   16  A    between atoms: _43  and  _45
REMARK   17  A    between atoms: _45  and  _46
REMARK   18  A    between atoms: _45  and  _48
REMARK   19  A    between atoms: _48  and  _49
REMARK   20  A    between atoms: _55  and  _57
REMARK   21  A    between atoms: _57  and  _58
REMARK   22  A    between atoms: _57  and  _60
REMARK   23  A    between atoms: _60  and  _61
REMARK   24  A    between atoms: _71  and  _73
REMARK   25  A    between atoms: _73  and  _74
REMARK   26  A    between atoms: _73  and  _76
REMARK   27  A    between atoms: _76  and  _77
REMARK   28  A    between atoms: _82  and  _84
REMARK   29  A    between atoms: _84  and  _85
REMARK   30  A    between atoms: _84  and  _87
REMARK   31  A    between atoms: _90  and  _92
REMARK   32  A    between atoms: _92  and  _93
REMARK   33  A    between atoms: _92  and  _95
REMARK   34  A    between atoms: _95  and  _96
REMARK   35  A    between atoms: _101  and  _102
REMARK   36  A    between atoms: _104  and  _106
REMARK   37  A    between atoms: _106  and  _107
REMARK   38  A    between atoms: _106  and  _109
REMARK   39  A    between atoms: _109  and  _110
REMARK   40  A    between atoms: _116  and  _118
REMARK   41  A    between atoms: _118  and  _119
REMARK   42  A    between atoms: _118  and  _121
REMARK   43  A    between atoms: _121  and  _122
REMARK   44  A    between atoms: _125  and  _127
REMARK   45  A    between atoms: _127  and  _128
REMARK   46  A    between atoms: _127  and  _130
REMARK   47  A    between atoms: _130  and  _131
REMARK   48  A    between atoms: _134  and  _136
REMARK   49  A    between atoms: _136  and  _137
REMARK   50  A    between atoms: _136  and  _139
REMARK   51  A    between atoms: _142  and  _144
REMARK   52  A    between atoms: _144  and  _145
REMARK   53  A    between atoms: _144  and  _147
REMARK   54  A    between atoms: _150  and  _152
REMARK   55  A    between atoms: _152  and  _153
REMARK   56  A    between atoms: _152  and  _155
REMARK   57  A    between atoms: _155  and  _156
REMARK   58  A    between atoms: _160  and  ZN_327
REMARK   59  A    between atoms: _161  and  _163
REMARK   60  A    between atoms: _163  and  _164
REMARK   61  A    between atoms: _163  and  _166
REMARK   62  A    between atoms: _166  and  _167
REMARK   63  A    between atoms: _167  and  _168
REMARK   64  A    between atoms: _171  and  _173
REMARK   65  A    between atoms: _173  and  _174
REMARK   66  A    between atoms: _173  and  _176
REMARK   67  A    between atoms: _176  and  _177
REMARK   68  A    between atoms: _180  and  _182
REMARK   69  A    between atoms: _182  and  _183
REMARK   70  A    between atoms: _182  and  _185
REMARK   71  A    between atoms: _185  and  _186
REMARK   72  A    between atoms: _190  and  ZN_327
REMARK   73  A    between atoms: _191  and  _193
REMARK   74  A    between atoms: _193  and  _194
REMARK   75  A    between atoms: _193  and  _196
REMARK   76  A    between atoms: _196  and  _197
REMARK   77  A    between atoms: _202  and  _203
REMARK   78  A    between atoms: _205  and  _207
REMARK   79  A    between atoms: _207  and  _208
REMARK   80  A    between atoms: _207  and  _210
REMARK   81  A    between atoms: _210  and  _211
REMARK   82  A    between atoms: _216  and  _218
REMARK   83  A    between atoms: _218  and  _219
REMARK   84  A    between atoms: _218  and  _221
REMARK   85  A    between atoms: _221  and  _222
REMARK   86  A    between atoms: _222  and  _223
REMARK   87  A    between atoms: _223  and  _224
REMARK   88  A    between atoms: _224  and  ZN_327
REMARK   89  A    between atoms: _226  and  _228
REMARK   90  A    between atoms: _228  and  _229
REMARK   91  A    between atoms: _228  and  _231
REMARK   92  A    between atoms: _231  and  _232
REMARK   93  A    between atoms: _234  and  _236
REMARK   94  A    between atoms: _236  and  _237
REMARK   95  A    between atoms: _236  and  _239
REMARK   96  A    between atoms: _239  and  _240
REMARK   97  A    between atoms: _243  and  _245
REMARK   98  A    between atoms: _245  and  _246
REMARK   99  A    between atoms: _245  and  _248
REMARK  100  A    between atoms: _248  and  _249
REMARK  101  A    between atoms: _252  and  _254
REMARK  102  A    between atoms: _254  and  _255
REMARK  103  A    between atoms: _257  and  _259
REMARK  104  A    between atoms: _259  and  _260
REMARK  105  A    between atoms: _259  and  _262
REMARK  106  A    between atoms: _265  and  _267
REMARK  107  A    between atoms: _267  and  _268
REMARK  108  A    between atoms: _267  and  _270
REMARK  109  A    between atoms: _270  and  _271
REMARK  110  A    between atoms: _274  and  _276
REMARK  111  A    between atoms: _276  and  _277
REMARK  112  A    between atoms: _276  and  _279
REMARK  113  A    between atoms: _280  and  _281
REMARK  114  A    between atoms: _281  and  _282
REMARK  115  A    between atoms: _291  and  _293
REMARK  116  A    between atoms: _293  and  _294
REMARK  117  A    between atoms: _293  and  _296
REMARK  118  A    between atoms: _296  and  _297
REMARK  119  A    between atoms: _300  and  _302
REMARK  120  A    between atoms: _302  and  _303
REMARK  121  A    between atoms: _302  and  _305
REMARK  122  A    between atoms: _308  and  _310
REMARK  123  A    between atoms: _310  and  _311
REMARK  124  A    between atoms: _310  and  _313
REMARK  125  A    between atoms: _313  and  _314
REMARK  126  A    between atoms: _319  and  _321
REMARK  127  A    between atoms: _321  and  _322
REMARK  128  A    between atoms: _321  and  _324
REMARK  129  A    between atoms: _324  and  _325
REMARK                            x       y       z     vdW  Elec       q    Type
REMARK                         _______ _______ _______ _____ _____    ______ ____
ROOT
ATOM      1  O   HOH     1      52.464  13.152 -11.134  0.00  0.00    +0.000 OA
ENDROOT
TORSDOF 0
REMARK  Name = ../refined-set-2016/4tln/4tln_pocket.pdb
REMARK  129 active torsions:
REMARK  status: ('A' for Active; 'I' for Inactive)
REMARK    1  A    between atoms: _1  and  _3
REMARK    2  A    between atoms: _3  and  _4
REMARK    3  A    between atoms: _3  and  _6
REMARK    4  A    between atoms: _6  and  _7
REMARK    5  A    between atoms: _12  and  _13
REMARK    6  A    between atoms: _15  and  _17
REMARK    7  A    between atoms: _17  and  _18
REMARK    8  A    between atoms: _17  and  _20
REMARK    9  A    between atoms: _20  and  _21
REMARK   10  A    between atoms: _26  and  _28
REMARK   11  A    between atoms: _28  and  _29
REMARK   12  A    between atoms: _28  and  _31
REMARK   13  A    between atoms: _31  and  _32
REMARK   14  A    between atoms: _37  and  _39
REMARK   15  A    between atoms: _39  and  _40
REMARK   16  A    between atoms: _43  and  _45
REMARK   17  A    between atoms: _45  and  _46
REMARK   18  A    between atoms: _45  and  _48
REMARK   19  A    between atoms: _48  and  _49
REMARK   20  A    between atoms: _55  and  _57
REMARK   21  A    between atoms: _57  and  _58
REMARK   22  A    between atoms: _57  and  _60
REMARK   23  A    between atoms: _60  and  _61
REMARK   24  A    between atoms: _71  and  _73
REMARK   25  A    between atoms: _73  and  _74
REMARK   26  A    between atoms: _73  and  _76
REMARK   27  A    between atoms: _76  and  _77
REMARK   28  A    between atoms: _82  and  _84
REMARK   29  A    between atoms: _84  and  _85
REMARK   30  A    between atoms: _84  and  _87
REMARK   31  A    between atoms: _90  and  _92
REMARK   32  A    between atoms: _92  and  _93
REMARK   33  A    between atoms: _92  and  _95
REMARK   34  A    between atoms: _95  and  _96
REMARK   35  A    between atoms: _101  and  _102
REMARK   36  A    between atoms: _104  and  _106
REMARK   37  A    between atoms: _106  and  _107
REMARK   38  A    between atoms: _106  and  _109
REMARK   39  A    between atoms: _109  and  _110
REMARK   40  A    between atoms: _116  and  _118
REMARK   41  A    between atoms: _118  and  _119
REMARK   42  A    between atoms: _118  and  _121
REMARK   43  A    between atoms: _121  and  _122
REMARK   44  A    between atoms: _125  and  _127
REMARK   45  A    between atoms: _127  and  _128
REMARK   46  A    between atoms: _127  and  _130
REMARK   47  A    between atoms: _130  and  _131
REMARK   48  A    between atoms: _134  and  _136
REMARK   49  A    between atoms: _136  and  _137
REMARK   50  A    between atoms: _136  and  _139
REMARK   51  A    between atoms: _142  and  _144
REMARK   52  A    between atoms: _144  and  _145
REMARK   53  A    between atoms: _144  and  _147
REMARK   54  A    between atoms: _150  and  _152
REMARK   55  A    between atoms: _152  and  _153
REMARK   56  A    between atoms: _152  and  _155
REMARK   57  A    between atoms: _155  and  _156
REMARK   58  A    between atoms: _160  and  ZN_327
REMARK   59  A    between atoms: _161  and  _163
REMARK   60  A    between atoms: _163  and  _164
REMARK   61  A    between atoms: _163  and  _166
REMARK   62  A    between atoms: _166  and  _167
REMARK   63  A    between atoms: _167  and  _168
REMARK   64  A    between atoms: _171  and  _173
REMARK   65  A    between atoms: _173  and  _174
REMARK   66  A    between atoms: _173  and  _176
REMARK   67  A    between atoms: _176  and  _177
REMARK   68  A    between atoms: _180  and  _182
REMARK   69  A    between atoms: _182  and  _183
REMARK   70  A    between atoms: _182  and  _185
REMARK   71  A    between atoms: _185  and  _186
REMARK   72  A    between atoms: _190  and  ZN_327
REMARK   73  A    between atoms: _191  and  _193
REMARK   74  A    between atoms: _193  and  _194
REMARK   75  A    between atoms: _193  and  _196
REMARK   76  A    between atoms: _196  and  _197
REMARK   77  A    between atoms: _202  and  _203
REMARK   78  A    between atoms: _205  and  _207
REMARK   79  A    between atoms: _207  and  _208
REMARK   80  A    between atoms: _207  and  _210
REMARK   81  A    between atoms: _210  and  _211
REMARK   82  A    between atoms: _216  and  _218
REMARK   83  A    between atoms: _218  and  _219
REMARK   84  A    between atoms: _218  and  _221
REMARK   85  A    between atoms: _221  and  _222
REMARK   86  A    between atoms: _222  and  _223
REMARK   87  A    between atoms: _223  and  _224
REMARK   88  A    between atoms: _224  and  ZN_327
REMARK   89  A    between atoms: _226  and  _228
REMARK   90  A    between atoms: _228  and  _229
REMARK   91  A    between atoms: _228  and  _231
REMARK   92  A    between atoms: _231  and  _232
REMARK   93  A    between atoms: _234  and  _236
REMARK   94  A    between atoms: _236  and  _237
REMARK   95  A    between atoms: _236  and  _239
REMARK   96  A    between atoms: _239  and  _240
REMARK   97  A    between atoms: _243  and  _245
REMARK   98  A    between atoms: _245  and  _246
REMARK   99  A    between atoms: _245  and  _248
REMARK  100  A    between atoms: _248  and  _249
REMARK  101  A    between atoms: _252  and  _254
REMARK  102  A    between atoms: _254  and  _255
REMARK  103  A    between atoms: _257  and  _259
REMARK  104  A    between atoms: _259  and  _260
REMARK  105  A    between atoms: _259  and  _262
REMARK  106  A    between atoms: _265  and  _267
REMARK  107  A    between atoms: _267  and  _268
REMARK  108  A    between atoms: _267  and  _270
REMARK  109  A    between atoms: _270  and  _271
REMARK  110  A    between atoms: _274  and  _276
REMARK  111  A    between atoms: _276  and  _277
REMARK  112  A    between atoms: _276  and  _279
REMARK  113  A    between atoms: _280  and  _281
REMARK  114  A    between atoms: _281  and  _282
REMARK  115  A    between atoms: _291  and  _293
REMARK  116  A    between atoms: _293  and  _294
REMARK  117  A    between atoms: _293  and  _296
REMARK  118  A    between atoms: _296  and  _297
REMARK  119  A    between atoms: _300  and  _302
REMARK  120  A    between atoms: _302  and  _303
REMARK  121  A    between atoms: _302  and  _305
REMARK  122  A    between atoms: _308  and  _310
REMARK  123  A    between atoms: _310  and  _311
REMARK  124  A    between atoms: _310  and  _313
REMARK  125  A    between atoms: _313  and  _314
REMARK  126  A    between atoms: _319  and  _321
REMARK  127  A    between atoms: _321  and  _322
REMARK  128  A    between atoms: _321  and  _324
REMARK  129  A    between atoms: _324  and  _325
REMARK                            x       y       z     vdW  Elec       q    Type
REMARK                         _______ _______ _______ _____ _____    ______ ____
ROOT
ATOM      1  O   HOH     1      59.885  17.678  -6.419  0.00  0.00    +0.000 OA
ENDROOT
TORSDOF 0
REMARK  Name = ../refined-set-2016/4tln/4tln_pocket.pdb
REMARK  129 active torsions:
REMARK  status: ('A' for Active; 'I' for Inactive)
REMARK    1  A    between atoms: _1  and  _3
REMARK    2  A    between atoms: _3  and  _4
REMARK    3  A    between atoms: _3  and  _6
REMARK    4  A    between atoms: _6  and  _7
REMARK    5  A    between atoms: _12  and  _13
REMARK    6  A    between atoms: _15  and  _17
REMARK    7  A    between atoms: _17  and  _18
REMARK    8  A    between atoms: _17  and  _20
REMARK    9  A    between atoms: _20  and  _21
REMARK   10  A    between atoms: _26  and  _28
REMARK   11  A    between atoms: _28  and  _29
REMARK   12  A    between atoms: _28  and  _31
REMARK   13  A    between atoms: _31  and  _32
REMARK   14  A    between atoms: _37  and  _39
REMARK   15  A    between atoms: _39  and  _40
REMARK   16  A    between atoms: _43  and  _45
REMARK   17  A    between atoms: _45  and  _46
REMARK   18  A    between atoms: _45  and  _48
REMARK   19  A    between atoms: _48  and  _49
REMARK   20  A    between atoms: _55  and  _57
REMARK   21  A    between atoms: _57  and  _58
REMARK   22  A    between atoms: _57  and  _60
REMARK   23  A    between atoms: _60  and  _61
REMARK   24  A    between atoms: _71  and  _73
REMARK   25  A    between atoms: _73  and  _74
REMARK   26  A    between atoms: _73  and  _76
REMARK   27  A    between atoms: _76  and  _77
REMARK   28  A    between atoms: _82  and  _84
REMARK   29  A    between atoms: _84  and  _85
REMARK   30  A    between atoms: _84  and  _87
REMARK   31  A    between atoms: _90  and  _92
REMARK   32  A    between atoms: _92  and  _93
REMARK   33  A    between atoms: _92  and  _95
REMARK   34  A    between atoms: _95  and  _96
REMARK   35  A    between atoms: _101  and  _102
REMARK   36  A    between atoms: _104  and  _106
REMARK   37  A    between atoms: _106  and  _107
REMARK   38  A    between atoms: _106  and  _109
REMARK   39  A    between atoms: _109  and  _110
REMARK   40  A    between atoms: _116  and  _118
REMARK   41  A    between atoms: _118  and  _119
REMARK   42  A    between atoms: _118  and  _121
REMARK   43  A    between atoms: _121  and  _122
REMARK   44  A    between atoms: _125  and  _127
REMARK   45  A    between atoms: _127  and  _128
REMARK   46  A    between atoms: _127  and  _130
REMARK   47  A    between atoms: _130  and  _131
REMARK   48  A    between atoms: _134  and  _136
REMARK   49  A    between atoms: _136  and  _137
REMARK   50  A    between atoms: _136  and  _139
REMARK   51  A    between atoms: _142  and  _144
REMARK   52  A    between atoms: _144  and  _145
REMARK   53  A    between atoms: _144  and  _147
REMARK   54  A    between atoms: _150  and  _152
REMARK   55  A    between atoms: _152  and  _153
REMARK   56  A    between atoms: _152  and  _155
REMARK   57  A    between atoms: _155  and  _156
REMARK   58  A    between atoms: _160  and  ZN_327
REMARK   59  A    between atoms: _161  and  _163
REMARK   60  A    between atoms: _163  and  _164
REMARK   61  A    between atoms: _163  and  _166
REMARK   62  A    between atoms: _166  and  _167
REMARK   63  A    between atoms: _167  and  _168
REMARK   64  A    between atoms: _171  and  _173
REMARK   65  A    between atoms: _173  and  _174
REMARK   66  A    between atoms: _173  and  _176
REMARK   67  A    between atoms: _176  and  _177
REMARK   68  A    between atoms: _180  and  _182
REMARK   69  A    between atoms: _182  and  _183
REMARK   70  A    between atoms: _182  and  _185
REMARK   71  A    between atoms: _185  and  _186
REMARK   72  A    between atoms: _190  and  ZN_327
REMARK   73  A    between atoms: _191  and  _193
REMARK   74  A    between atoms: _193  and  _194
REMARK   75  A    between atoms: _193  and  _196
REMARK   76  A    between atoms: _196  and  _197
REMARK   77  A    between atoms: _202  and  _203
REMARK   78  A    between atoms: _205  and  _207
REMARK   79  A    between atoms: _207  and  _208
REMARK   80  A    between atoms: _207  and  _210
REMARK   81  A    between atoms: _210  and  _211
REMARK   82  A    between atoms: _216  and  _218
REMARK   83  A    between atoms: _218  and  _219
REMARK   84  A    between atoms: _218  and  _221
REMARK   85  A    between atoms: _221  and  _222
REMARK   86  A    between atoms: _222  and  _223
REMARK   87  A    between atoms: _223  and  _224
REMARK   88  A    between atoms: _224  and  ZN_327
REMARK   89  A    between atoms: _226  and  _228
REMARK   90  A    between atoms: _228  and  _229
REMARK   91  A    between atoms: _228  and  _231
REMARK   92  A    between atoms: _231  and  _232
REMARK   93  A    between atoms: _234  and  _236
REMARK   94  A    between atoms: _236  and  _237
REMARK   95  A    between atoms: _236  and  _239
REMARK   96  A    between atoms: _239  and  _240
REMARK   97  A    between atoms: _243  and  _245
REMARK   98  A    between atoms: _245  and  _246
REMARK   99  A    between atoms: _245  and  _248
REMARK  100  A    between atoms: _248  and  _249
REMARK  101  A    between atoms: _252  and  _254
REMARK  102  A    between atoms: _254  and  _255
REMARK  103  A    between atoms: _257  and  _259
REMARK  104  A    between atoms: _259  and  _260
REMARK  105  A    between atoms: _259  and  _262
REMARK  106  A    between atoms: _265  and  _267
REMARK  107  A    between atoms: _267  and  _268
REMARK  108  A    between atoms: _267  and  _270
REMARK  109  A    between atoms: _270  and  _271
REMARK  110  A    between atoms: _274  and  _276
REMARK  111  A    between atoms: _276  and  _277
REMARK  112  A    between atoms: _276  and  _279
REMARK  113  A    between atoms: _280  and  _281
REMARK  114  A    between atoms: _281  and  _282
REMARK  115  A    between atoms: _291  and  _293
REMARK  116  A    between atoms: _293  and  _294
REMARK  117  A    between atoms: _293  and  _296
REMARK  118  A    between atoms: _296  and  _297
REMARK  119  A    between atoms: _300  and  _302
REMARK  120  A    between atoms: _302  and  _303
REMARK  121  A    between atoms: _302  and  _305
REMARK  122  A    between atoms: _308  and  _310
REMARK  123  A    between atoms: _310  and  _311
REMARK  124  A    between atoms: _310  and  _313
REMARK  125  A    between atoms: _313  and  _314
REMARK  126  A    between atoms: _319  and  _321
REMARK  127  A    between atoms: _321  and  _322
REMARK  128  A    between atoms: _321  and  _324
REMARK  129  A    between atoms: _324  and  _325
REMARK                            x       y       z     vdW  Elec       q    Type
REMARK                         _______ _______ _______ _____ _____    ______ ____
ROOT
ATOM      1  O   HOH     1      50.038  21.238  -8.045  0.00  0.00    +0.000 OA
ENDROOT
TORSDOF 0
REMARK  Name = ../refined-set-2016/4tln/4tln_pocket.pdb
REMARK  129 active torsions:
REMARK  status: ('A' for Active; 'I' for Inactive)
REMARK    1  A    between atoms: _1  and  _3
REMARK    2  A    between atoms: _3  and  _4
REMARK    3  A    between atoms: _3  and  _6
REMARK    4  A    between atoms: _6  and  _7
REMARK    5  A    between atoms: _12  and  _13
REMARK    6  A    between atoms: _15  and  _17
REMARK    7  A    between atoms: _17  and  _18
REMARK    8  A    between atoms: _17  and  _20
REMARK    9  A    between atoms: _20  and  _21
REMARK   10  A    between atoms: _26  and  _28
REMARK   11  A    between atoms: _28  and  _29
REMARK   12  A    between atoms: _28  and  _31
REMARK   13  A    between atoms: _31  and  _32
REMARK   14  A    between atoms: _37  and  _39
REMARK   15  A    between atoms: _39  and  _40
REMARK   16  A    between atoms: _43  and  _45
REMARK   17  A    between atoms: _45  and  _46
REMARK   18  A    between atoms: _45  and  _48
REMARK   19  A    between atoms: _48  and  _49
REMARK   20  A    between atoms: _55  and  _57
REMARK   21  A    between atoms: _57  and  _58
REMARK   22  A    between atoms: _57  and  _60
REMARK   23  A    between atoms: _60  and  _61
REMARK   24  A    between atoms: _71  and  _73
REMARK   25  A    between atoms: _73  and  _74
REMARK   26  A    between atoms: _73  and  _76
REMARK   27  A    between atoms: _76  and  _77
REMARK   28  A    between atoms: _82  and  _84
REMARK   29  A    between atoms: _84  and  _85
REMARK   30  A    between atoms: _84  and  _87
REMARK   31  A    between atoms: _90  and  _92
REMARK   32  A    between atoms: _92  and  _93
REMARK   33  A    between atoms: _92  and  _95
REMARK   34  A    between atoms: _95  and  _96
REMARK   35  A    between atoms: _101  and  _102
REMARK   36  A    between atoms: _104  and  _106
REMARK   37  A    between atoms: _106  and  _107
REMARK   38  A    between atoms: _106  and  _109
REMARK   39  A    between atoms: _109  and  _110
REMARK   40  A    between atoms: _116  and  _118
REMARK   41  A    between atoms: _118  and  _119
REMARK   42  A    between atoms: _118  and  _121
REMARK   43  A    between atoms: _121  and  _122
REMARK   44  A    between atoms: _125  and  _127
REMARK   45  A    between atoms: _127  and  _128
REMARK   46  A    between atoms: _127  and  _130
REMARK   47  A    between atoms: _130  and  _131
REMARK   48  A    between atoms: _134  and  _136
REMARK   49  A    between atoms: _136  and  _137
REMARK   50  A    between atoms: _136  and  _139
REMARK   51  A    between atoms: _142  and  _144
REMARK   52  A    between atoms: _144  and  _145
REMARK   53  A    between atoms: _144  and  _147
REMARK   54  A    between atoms: _150  and  _152
REMARK   55  A    between atoms: _152  and  _153
REMARK   56  A    between atoms: _152  and  _155
REMARK   57  A    between atoms: _155  and  _156
REMARK   58  A    between atoms: _160  and  ZN_327
REMARK   59  A    between atoms: _161  and  _163
REMARK   60  A    between atoms: _163  and  _164
REMARK   61  A    between atoms: _163  and  _166
REMARK   62  A    between atoms: _166  and  _167
REMARK   63  A    between atoms: _167  and  _168
REMARK   64  A    between atoms: _171  and  _173
REMARK   65  A    between atoms: _173  and  _174
REMARK   66  A    between atoms: _173  and  _176
REMARK   67  A    between atoms: _176  and  _177
REMARK   68  A    between atoms: _180  and  _182
REMARK   69  A    between atoms: _182  and  _183
REMARK   70  A    between atoms: _182  and  _185
REMARK   71  A    between atoms: _185  and  _186
REMARK   72  A    between atoms: _190  and  ZN_327
REMARK   73  A    between atoms: _191  and  _193
REMARK   74  A    between atoms: _193  and  _194
REMARK   75  A    between atoms: _193  and  _196
REMARK   76  A    between atoms: _196  and  _197
REMARK   77  A    between atoms: _202  and  _203
REMARK   78  A    between atoms: _205  and  _207
REMARK   79  A    between atoms: _207  and  _208
REMARK   80  A    between atoms: _207  and  _210
REMARK   81  A    between atoms: _210  and  _211
REMARK   82  A    between atoms: _216  and  _218
REMARK   83  A    between atoms: _218  and  _219
REMARK   84  A    between atoms: _218  and  _221
REMARK   85  A    between atoms: _221  and  _222
REMARK   86  A    between atoms: _222  and  _223
REMARK   87  A    between atoms: _223  and  _224
REMARK   88  A    between atoms: _224  and  ZN_327
REMARK   89  A    between atoms: _226  and  _228
REMARK   90  A    between atoms: _228  and  _229
REMARK   91  A    between atoms: _228  and  _231
REMARK   92  A    between atoms: _231  and  _232
REMARK   93  A    between atoms: _234  and  _236
REMARK   94  A    between atoms: _236  and  _237
REMARK   95  A    between atoms: _236  and  _239
REMARK   96  A    between atoms: _239  and  _240
REMARK   97  A    between atoms: _243  and  _245
REMARK   98  A    between atoms: _245  and  _246
REMARK   99  A    between atoms: _245  and  _248
REMARK  100  A    between atoms: _248  and  _249
REMARK  101  A    between atoms: _252  and  _254
REMARK  102  A    between atoms: _254  and  _255
REMARK  103  A    between atoms: _257  and  _259
REMARK  104  A    between atoms: _259  and  _260
REMARK  105  A    between atoms: _259  and  _262
REMARK  106  A    between atoms: _265  and  _267
REMARK  107  A    between atoms: _267  and  _268
REMARK  108  A    between atoms: _267  and  _270
REMARK  109  A    between atoms: _270  and  _271
REMARK  110  A    between atoms: _274  and  _276
REMARK  111  A    between atoms: _276  and  _277
REMARK  112  A    between atoms: _276  and  _279
REMARK  113  A    between atoms: _280  and  _281
REMARK  114  A    between atoms: _281  and  _282
REMARK  115  A    between atoms: _291  and  _293
REMARK  116  A    between atoms: _293  and  _294
REMARK  117  A    between atoms: _293  and  _296
REMARK  118  A    between atoms: _296  and  _297
REMARK  119  A    between atoms: _300  and  _302
REMARK  120  A    between atoms: _302  and  _303
REMARK  121  A    between atoms: _302  and  _305
REMARK  122  A    between atoms: _308  and  _310
REMARK  123  A    between atoms: _310  and  _311
REMARK  124  A    between atoms: _310  and  _313
REMARK  125  A    between atoms: _313  and  _314
REMARK  126  A    between atoms: _319  and  _321
REMARK  127  A    between atoms: _321  and  _322
REMARK  128  A    between atoms: _321  and  _324
REMARK  129  A    between atoms: _324  and  _325
REMARK                            x       y       z     vdW  Elec       q    Type
REMARK                         _______ _______ _______ _____ _____    ______ ____
ROOT
ATOM      1  O   HOH     1      50.360  17.865  -7.881  0.00  0.00    +0.000 OA
ENDROOT
TORSDOF 0
