REMARK  Name = ../refined-set-2016/1nvr/1nvr_pocket.pdb
REMARK  216 active torsions:
REMARK  status: ('A' for Active; 'I' for Inactive)
REMARK    1  A    between atoms: _1  and  _3
REMARK    2  A    between atoms: _3  and  _4
REMARK    3  A    between atoms: _3  and  _6
REMARK    4  A    between atoms: _6  and  _7
REMARK    5  A    between atoms: _7  and  _8
REMARK    6  A    between atoms: _13  and  _15
REMARK    7  A    between atoms: _15  and  _16
REMARK    8  A    between atoms: _15  and  _18
REMARK    9  A    between atoms: _18  and  _19
REMARK   10  A    between atoms: _22  and  _24
REMARK   11  A    between atoms: _24  and  _25
REMARK   12  A    between atoms: _24  and  _27
REMARK   13  A    between atoms: _27  and  _28
REMARK   14  A    between atoms: _31  and  _33
REMARK   15  A    between atoms: _33  and  _34
REMARK   16  A    between atoms: _36  and  _38
REMARK   17  A    between atoms: _38  and  _39
REMARK   18  A    between atoms: _38  and  _41
REMARK   19  A    between atoms: _41  and  _42
REMARK   20  A    between atoms: _42  and  _43
REMARK   21  A    between atoms: _46  and  _48
REMARK   22  A    between atoms: _48  and  _49
REMARK   23  A    between atoms: _51  and  _53
REMARK   24  A    between atoms: _53  and  _54
REMARK   25  A    between atoms: _53  and  _56
REMARK   26  A    between atoms: _56  and  _57
REMARK   27  A    between atoms: _62  and  _63
REMARK   28  A    between atoms: _65  and  _67
REMARK   29  A    between atoms: _67  and  _68
REMARK   30  A    between atoms: _70  and  _72
REMARK   31  A    between atoms: _72  and  _73
REMARK   32  A    between atoms: _72  and  _75
REMARK   33  A    between atoms: _75  and  _76
REMARK   34  A    between atoms: _76  and  _77
REMARK   35  A    between atoms: _80  and  _82
REMARK   36  A    between atoms: _82  and  _83
REMARK   37  A    between atoms: _82  and  _85
REMARK   38  A    between atoms: _88  and  _90
REMARK   39  A    between atoms: _90  and  _91
REMARK   40  A    between atoms: _90  and  _93
REMARK   41  A    between atoms: _93  and  _94
REMARK   42  A    between atoms: _94  and  _95
REMARK   43  A    between atoms: _100  and  _102
REMARK   44  A    between atoms: _102  and  _103
REMARK   45  A    between atoms: _102  and  _105
REMARK   46  A    between atoms: _105  and  _106
REMARK   47  A    between atoms: _109  and  _111
REMARK   48  A    between atoms: _111  and  _112
REMARK   49  A    between atoms: _115  and  _117
REMARK   50  A    between atoms: _117  and  _118
REMARK   51  A    between atoms: _121  and  _123
REMARK   52  A    between atoms: _123  and  _124
REMARK   53  A    between atoms: _123  and  _126
REMARK   54  A    between atoms: _129  and  _131
REMARK   55  A    between atoms: _131  and  _132
REMARK   56  A    between atoms: _135  and  _137
REMARK   57  A    between atoms: _137  and  _138
REMARK   58  A    between atoms: _137  and  _140
REMARK   59  A    between atoms: _143  and  _145
REMARK   60  A    between atoms: _145  and  _146
REMARK   61  A    between atoms: _145  and  _148
REMARK   62  A    between atoms: _148  and  _149
REMARK   63  A    between atoms: _149  and  _150
REMARK   64  A    between atoms: _150  and  _151
REMARK   65  A    between atoms: _151  and  _152
REMARK   66  A    between atoms: _156  and  _158
REMARK   67  A    between atoms: _158  and  _159
REMARK   68  A    between atoms: _158  and  _161
REMARK   69  A    between atoms: _161  and  _162
REMARK   70  A    between atoms: _165  and  _167
REMARK   71  A    between atoms: _167  and  _168
REMARK   72  A    between atoms: _167  and  _170
REMARK   73  A    between atoms: _173  and  _175
REMARK   74  A    between atoms: _175  and  _176
REMARK   75  A    between atoms: _175  and  _178
REMARK   76  A    between atoms: _178  and  _179
REMARK   77  A    between atoms: _179  and  _180
REMARK   78  A    between atoms: _183  and  _185
REMARK   79  A    between atoms: _185  and  _186
REMARK   80  A    between atoms: _185  and  _188
REMARK   81  A    between atoms: _188  and  _189
REMARK   82  A    between atoms: _194  and  _196
REMARK   83  A    between atoms: _196  and  _197
REMARK   84  A    between atoms: _196  and  _199
REMARK   85  A    between atoms: _202  and  _204
REMARK   86  A    between atoms: _204  and  _205
REMARK   87  A    between atoms: _204  and  _207
REMARK   88  A    between atoms: _207  and  _208
REMARK   89  A    between atoms: _208  and  _209
REMARK   90  A    between atoms: _209  and  _210
REMARK   91  A    between atoms: _210  and  _211
REMARK   92  A    between atoms: _215  and  _217
REMARK   93  A    between atoms: _217  and  _218
REMARK   94  A    between atoms: _217  and  _220
REMARK   95  A    between atoms: _220  and  _221
REMARK   96  A    between atoms: _226  and  _227
REMARK   97  A    between atoms: _229  and  _231
REMARK   98  A    between atoms: _231  and  _232
REMARK   99  A    between atoms: _231  and  _234
REMARK  100  A    between atoms: _234  and  _235
REMARK  101  A    between atoms: _238  and  _240
REMARK  102  A    between atoms: _240  and  _241
REMARK  103  A    between atoms: _240  and  _243
REMARK  104  A    between atoms: _243  and  _244
REMARK  105  A    between atoms: _250  and  _252
REMARK  106  A    between atoms: _252  and  _253
REMARK  107  A    between atoms: _252  and  _255
REMARK  108  A    between atoms: _255  and  _256
REMARK  109  A    between atoms: _259  and  _261
REMARK  110  A    between atoms: _261  and  _262
REMARK  111  A    between atoms: _261  and  _264
REMARK  112  A    between atoms: _264  and  _265
REMARK  113  A    between atoms: _265  and  _266
REMARK  114  A    between atoms: _269  and  _271
REMARK  115  A    between atoms: _271  and  _272
REMARK  116  A    between atoms: _271  and  _274
REMARK  117  A    between atoms: _274  and  _275
REMARK  118  A    between atoms: _280  and  _281
REMARK  119  A    between atoms: _283  and  _285
REMARK  120  A    between atoms: _285  and  _286
REMARK  121  A    between atoms: _285  and  _288
REMARK  122  A    between atoms: _290  and  _292
REMARK  123  A    between atoms: _292  and  _293
REMARK  124  A    between atoms: _292  and  _295
REMARK  125  A    between atoms: _295  and  _296
REMARK  126  A    between atoms: _298  and  _300
REMARK  127  A    between atoms: _300  and  _301
REMARK  128  A    between atoms: _303  and  _305
REMARK  129  A    between atoms: _305  and  _306
REMARK  130  A    between atoms: _308  and  _310
REMARK  131  A    between atoms: _310  and  _311
REMARK  132  A    between atoms: _310  and  _313
REMARK  133  A    between atoms: _313  and  _314
REMARK  134  A    between atoms: _314  and  _315
REMARK  135  A    between atoms: _318  and  _320
REMARK  136  A    between atoms: _320  and  _321
REMARK  137  A    between atoms: _320  and  _323
REMARK  138  A    between atoms: _323  and  _324
REMARK  139  A    between atoms: _327  and  _329
REMARK  140  A    between atoms: _329  and  _330
REMARK  141  A    between atoms: _329  and  _332
REMARK  142  A    between atoms: _332  and  _333
REMARK  143  A    between atoms: _339  and  _341
REMARK  144  A    between atoms: _341  and  _342
REMARK  145  A    between atoms: _341  and  _344
REMARK  146  A    between atoms: _344  and  _345
REMARK  147  A    between atoms: _348  and  _350
REMARK  148  A    between atoms: _350  and  _351
REMARK  149  A    between atoms: _350  and  _353
REMARK  150  A    between atoms: _353  and  _354
REMARK  151  A    between atoms: _359  and  _361
REMARK  152  A    between atoms: _361  and  _362
REMARK  153  A    between atoms: _361  and  _364
REMARK  154  A    between atoms: _364  and  _365
REMARK  155  A    between atoms: _368  and  _370
REMARK  156  A    between atoms: _370  and  _371
REMARK  157  A    between atoms: _370  and  _373
REMARK  158  A    between atoms: _373  and  _374
REMARK  159  A    between atoms: _374  and  _375
REMARK  160  A    between atoms: _375  and  _376
REMARK  161  A    between atoms: _376  and  _377
REMARK  162  A    between atoms: _382  and  _383
REMARK  163  A    between atoms: _388  and  _390
REMARK  164  A    between atoms: _390  and  _391
REMARK  165  A    between atoms: _390  and  _393
REMARK  166  A    between atoms: _393  and  _394
REMARK  167  A    between atoms: _394  and  _395
REMARK  168  A    between atoms: _398  and  _400
REMARK  169  A    between atoms: _400  and  _401
REMARK  170  A    between atoms: _400  and  _403
REMARK  171  A    between atoms: _403  and  _404
REMARK  172  A    between atoms: _409  and  _411
REMARK  173  A    between atoms: _411  and  _412
REMARK  174  A    between atoms: _411  and  _414
REMARK  175  A    between atoms: _414  and  _415
REMARK  176  A    between atoms: _418  and  _420
REMARK  177  A    between atoms: _420  and  _421
REMARK  178  A    between atoms: _420  and  _423
REMARK  179  A    between atoms: _423  and  _424
REMARK  180  A    between atoms: _427  and  _429
REMARK  181  A    between atoms: _429  and  _430
REMARK  182  A    between atoms: _429  and  _432
REMARK  183  A    between atoms: _432  and  _433
REMARK  184  A    between atoms: _436  and  _438
REMARK  185  A    between atoms: _438  and  _439
REMARK  186  A    between atoms: _438  and  _441
REMARK  187  A    between atoms: _441  and  _442
REMARK  188  A    between atoms: _445  and  _447
REMARK  189  A    between atoms: _447  and  _448
REMARK  190  A    between atoms: _447  and  _450
REMARK  191  A    between atoms: _450  and  _451
REMARK  192  A    between atoms: _451  and  _452
REMARK  193  A    between atoms: _452  and  _453
REMARK  194  A    between atoms: _453  and  _454
REMARK  195  A    between atoms: _458  and  _460
REMARK  196  A    between atoms: _460  and  _461
REMARK  197  A    between atoms: _460  and  _463
REMARK  198  A    between atoms: _463  and  _464
REMARK  199  A    between atoms: _467  and  _469
REMARK  200  A    between atoms: _469  and  _470
REMARK  201  A    between atoms: _469  and  _472
REMARK  202  A    between atoms: _472  and  _473
REMARK  203  A    between atoms: _475  and  _477
REMARK  204  A    between atoms: _477  and  _478
REMARK  205  A    between atoms: _477  and  _480
REMARK  206  A    between atoms: _480  and  _481
REMARK  207  A    between atoms: _484  and  _486
REMARK  208  A    between atoms: _486  and  _487
REMARK  209  A    between atoms: _486  and  _489
REMARK  210  A    between atoms: _489  and  _490
REMARK  211  A    between atoms: _496  and  _498
REMARK  212  A    between atoms: _498  and  _499
REMARK  213  A    between atoms: _501  and  _503
REMARK  214  A    between atoms: _503  and  _504
REMARK  215  A    between atoms: _503  and  _506
REMARK  216  A    between atoms: _506  and  _507
REMARK                            x       y       z     vdW  Elec       q    Type
REMARK                         _______ _______ _______ _____ _____    ______ ____
ROOT
ATOM      1  CA  LEU A   3       2.090   3.536  21.711  0.00  0.00    +0.149 C 
ENDROOT
BRANCH   1   4
ATOM      2  C   THR A   2       1.689   1.925  23.474  0.00  0.00    +0.243 C 
ATOM      3  O   THR A   2       0.488   1.912  23.231  0.00  0.00    -0.273 OA
ATOM      4  N   LEU A   3       2.541   2.699  22.815  0.00  0.00    -0.297 N 
ATOM      5  H   LEU A   3       3.544   2.709  23.090  0.00  0.00    +0.150 HD
BRANCH   2   6
ATOM      6  CA  THR A   2       2.257   1.066  24.598  0.00  0.00    +0.176 C 
BRANCH   6   9
ATOM      7  C   GLN A   1       2.107   2.472  26.536  0.00  0.00    +0.238 C 
ATOM      8  O   GLN A   1       3.106   3.081  26.185  0.00  0.00    -0.274 OA
ATOM      9  N   THR A   2       1.622   1.458  25.842  0.00  0.00    -0.295 N 
ATOM     10  H   THR A   2       0.787   0.942  26.187  0.00  0.00    +0.150 HD
BRANCH   7  11
ATOM     11  CA  GLN A   1       1.361   2.842  27.819  0.00  0.00    +0.145 C 
BRANCH  11  12
ATOM     12  N   GLN A   1       2.288   3.244  28.869  0.00  0.00    -0.238 NA
ATOM     13  H   GLN A   1       3.259   3.529  28.631  0.00  0.00    +0.142 HD
ENDBRANCH  11  12
BRANCH  11  14
ATOM     14  CB  GLN A   1       0.415   4.012  27.555  0.00  0.00    +0.036 C 
BRANCH  14  15
ATOM     15  CG  GLN A   1      -0.745   3.757  26.611  0.00  0.00    +0.087 C 
BRANCH  15  16
ATOM     16  CD  GLN A   1      -1.505   5.046  26.328  0.00  0.00    +0.219 C 
ATOM     17  OE1 GLN A   1      -1.675   5.874  27.225  0.00  0.00    -0.275 OA
ATOM     18  NE2 GLN A   1      -1.963   5.226  25.081  0.00  0.00    -0.329 N 
ATOM     19 HE21 GLN A   1      -2.485   6.092  24.839  0.00  0.00    +0.145 HD
ATOM     20 HE22 GLN A   1      -1.796   4.500  24.356  0.00  0.00    +0.145 HD
ENDBRANCH  15  16
ENDBRANCH  14  15
ENDBRANCH  11  14
ENDBRANCH   7  11
ENDBRANCH   6   9
BRANCH   6  21
ATOM     21  CB  THR A   2       1.994  -0.400  24.314  0.00  0.00    +0.137 C 
ATOM     22  CG2 THR A   2       2.643  -0.800  23.029  0.00  0.00    +0.034 C 
BRANCH  21  23
ATOM     23  OG1 THR A   2       2.552  -1.181  25.384  0.00  0.00    -0.382 OA
ATOM     24  HG1 THR A   2       2.125  -0.921  26.238  0.00  0.00    +0.210 HD
ENDBRANCH  21  23
ENDBRANCH   6  21
ENDBRANCH   2   6
ENDBRANCH   1   4
BRANCH   1  25
ATOM     25  C   LEU A   3       2.063   2.735  20.407  0.00  0.00    +0.241 C 
ATOM     26  N   GLY A   4       3.015   1.832  20.259  0.00  0.00    -0.295 N 
ATOM     27  H   GLY A   4       3.721   1.708  21.012  0.00  0.00    +0.150 HD
ATOM     28  O   LEU A   3       1.214   2.947  19.554  0.00  0.00    -0.273 OA
BRANCH  26  29
ATOM     29  CA  GLY A   4       3.096   1.011  19.069  0.00  0.00    +0.176 C 
BRANCH  29  30
ATOM     30  C   GLY A   4       4.021  -0.168  19.328  0.00  0.00    +0.243 C 
ATOM     31  O   GLY A   4       5.007  -0.032  20.053  0.00  0.00    -0.273 OA
ATOM     32  N   GLU A   5       3.686  -1.330  18.763  0.00  0.00    -0.297 N 
ATOM     33  H   GLU A   5       2.816  -1.377  18.195  0.00  0.00    +0.150 HD
BRANCH  32  34
ATOM     34  CA  GLU A   5       4.498  -2.544  18.913  0.00  0.00    +0.149 C 
BRANCH  34  35
ATOM     35  C   GLU A   5       4.535  -3.254  17.582  0.00  0.00    +0.241 C 
ATOM     36  N   GLY A   6       5.717  -3.684  17.161  0.00  0.00    -0.296 N 
ATOM     37  H   GLY A   6       6.568  -3.507  17.732  0.00  0.00    +0.150 HD
ATOM     38  O   GLU A   5       3.492  -3.430  16.959  0.00  0.00    -0.273 OA
BRANCH  36  39
ATOM     39  CA  GLY A   6       5.824  -4.402  15.904  0.00  0.00    +0.163 C 
BRANCH  39  40
ATOM     40  C   GLY A   6       7.162  -5.099  15.739  0.00  0.00    +0.229 C 
ATOM     41  O   GLY A   6       8.098  -4.867  16.525  0.00  0.00    -0.286 OA
ENDBRANCH  39  40
ENDBRANCH  36  39
ENDBRANCH  34  35
BRANCH  34  42
ATOM     42  CB  GLU A   5       3.887  -3.545  19.896  0.00  0.00    +0.041 C 
BRANCH  42  43
ATOM     43  CG  GLU A   5       3.756  -3.119  21.326  0.00  0.00    +0.116 C 
BRANCH  43  44
ATOM     44  CD  GLU A   5       3.549  -4.317  22.243  0.00  0.00    +0.365 C 
ATOM     45  OE2 GLU A   5       4.134  -4.324  23.355  0.00  0.00    -0.246 OA
ATOM     46  OE1 GLU A   5       2.797  -5.244  21.840  0.00  0.00    -0.246 OA
ENDBRANCH  43  44
ENDBRANCH  42  43
ENDBRANCH  34  42
ENDBRANCH  32  34
ENDBRANCH  29  30
ENDBRANCH  26  29
ENDBRANCH   1  25
BRANCH   1  47
ATOM     47  CB  LEU A   3       3.009   4.774  21.551  0.00  0.00    +0.029 C 
BRANCH  47  48
ATOM     48  CG  LEU A   3       2.956   5.733  22.747  0.00  0.00    +0.002 C 
ATOM     49  CD2 LEU A   3       1.507   6.218  22.934  0.00  0.00    +0.000 C 
ATOM     50  CD1 LEU A   3       3.939   6.892  22.565  0.00  0.00    +0.000 C 
ENDBRANCH  47  48
ENDBRANCH   1  47
TORSDOF 22
REMARK  Name = ../refined-set-2016/1nvr/1nvr_pocket.pdb
REMARK  216 active torsions:
REMARK  status: ('A' for Active; 'I' for Inactive)
REMARK    1  A    between atoms: _1  and  _3
REMARK    2  A    between atoms: _3  and  _4
REMARK    3  A    between atoms: _3  and  _6
REMARK    4  A    between atoms: _6  and  _7
REMARK    5  A    between atoms: _7  and  _8
REMARK    6  A    between atoms: _13  and  _15
REMARK    7  A    between atoms: _15  and  _16
REMARK    8  A    between atoms: _15  and  _18
REMARK    9  A    between atoms: _18  and  _19
REMARK   10  A    between atoms: _22  and  _24
REMARK   11  A    between atoms: _24  and  _25
REMARK   12  A    between atoms: _24  and  _27
REMARK   13  A    between atoms: _27  and  _28
REMARK   14  A    between atoms: _31  and  _33
REMARK   15  A    between atoms: _33  and  _34
REMARK   16  A    between atoms: _36  and  _38
REMARK   17  A    between atoms: _38  and  _39
REMARK   18  A    between atoms: _38  and  _41
REMARK   19  A    between atoms: _41  and  _42
REMARK   20  A    between atoms: _42  and  _43
REMARK   21  A    between atoms: _46  and  _48
REMARK   22  A    between atoms: _48  and  _49
REMARK   23  A    between atoms: _51  and  _53
REMARK   24  A    between atoms: _53  and  _54
REMARK   25  A    between atoms: _53  and  _56
REMARK   26  A    between atoms: _56  and  _57
REMARK   27  A    between atoms: _62  and  _63
REMARK   28  A    between atoms: _65  and  _67
REMARK   29  A    between atoms: _67  and  _68
REMARK   30  A    between atoms: _70  and  _72
REMARK   31  A    between atoms: _72  and  _73
REMARK   32  A    between atoms: _72  and  _75
REMARK   33  A    between atoms: _75  and  _76
REMARK   34  A    between atoms: _76  and  _77
REMARK   35  A    between atoms: _80  and  _82
REMARK   36  A    between atoms: _82  and  _83
REMARK   37  A    between atoms: _82  and  _85
REMARK   38  A    between atoms: _88  and  _90
REMARK   39  A    between atoms: _90  and  _91
REMARK   40  A    between atoms: _90  and  _93
REMARK   41  A    between atoms: _93  and  _94
REMARK   42  A    between atoms: _94  and  _95
REMARK   43  A    between atoms: _100  and  _102
REMARK   44  A    between atoms: _102  and  _103
REMARK   45  A    between atoms: _102  and  _105
REMARK   46  A    between atoms: _105  and  _106
REMARK   47  A    between atoms: _109  and  _111
REMARK   48  A    between atoms: _111  and  _112
REMARK   49  A    between atoms: _115  and  _117
REMARK   50  A    between atoms: _117  and  _118
REMARK   51  A    between atoms: _121  and  _123
REMARK   52  A    between atoms: _123  and  _124
REMARK   53  A    between atoms: _123  and  _126
REMARK   54  A    between atoms: _129  and  _131
REMARK   55  A    between atoms: _131  and  _132
REMARK   56  A    between atoms: _135  and  _137
REMARK   57  A    between atoms: _137  and  _138
REMARK   58  A    between atoms: _137  and  _140
REMARK   59  A    between atoms: _143  and  _145
REMARK   60  A    between atoms: _145  and  _146
REMARK   61  A    between atoms: _145  and  _148
REMARK   62  A    between atoms: _148  and  _149
REMARK   63  A    between atoms: _149  and  _150
REMARK   64  A    between atoms: _150  and  _151
REMARK   65  A    between atoms: _151  and  _152
REMARK   66  A    between atoms: _156  and  _158
REMARK   67  A    between atoms: _158  and  _159
REMARK   68  A    between atoms: _158  and  _161
REMARK   69  A    between atoms: _161  and  _162
REMARK   70  A    between atoms: _165  and  _167
REMARK   71  A    between atoms: _167  and  _168
REMARK   72  A    between atoms: _167  and  _170
REMARK   73  A    between atoms: _173  and  _175
REMARK   74  A    between atoms: _175  and  _176
REMARK   75  A    between atoms: _175  and  _178
REMARK   76  A    between atoms: _178  and  _179
REMARK   77  A    between atoms: _179  and  _180
REMARK   78  A    between atoms: _183  and  _185
REMARK   79  A    between atoms: _185  and  _186
REMARK   80  A    between atoms: _185  and  _188
REMARK   81  A    between atoms: _188  and  _189
REMARK   82  A    between atoms: _194  and  _196
REMARK   83  A    between atoms: _196  and  _197
REMARK   84  A    between atoms: _196  and  _199
REMARK   85  A    between atoms: _202  and  _204
REMARK   86  A    between atoms: _204  and  _205
REMARK   87  A    between atoms: _204  and  _207
REMARK   88  A    between atoms: _207  and  _208
REMARK   89  A    between atoms: _208  and  _209
REMARK   90  A    between atoms: _209  and  _210
REMARK   91  A    between atoms: _210  and  _211
REMARK   92  A    between atoms: _215  and  _217
REMARK   93  A    between atoms: _217  and  _218
REMARK   94  A    between atoms: _217  and  _220
REMARK   95  A    between atoms: _220  and  _221
REMARK   96  A    between atoms: _226  and  _227
REMARK   97  A    between atoms: _229  and  _231
REMARK   98  A    between atoms: _231  and  _232
REMARK   99  A    between atoms: _231  and  _234
REMARK  100  A    between atoms: _234  and  _235
REMARK  101  A    between atoms: _238  and  _240
REMARK  102  A    between atoms: _240  and  _241
REMARK  103  A    between atoms: _240  and  _243
REMARK  104  A    between atoms: _243  and  _244
REMARK  105  A    between atoms: _250  and  _252
REMARK  106  A    between atoms: _252  and  _253
REMARK  107  A    between atoms: _252  and  _255
REMARK  108  A    between atoms: _255  and  _256
REMARK  109  A    between atoms: _259  and  _261
REMARK  110  A    between atoms: _261  and  _262
REMARK  111  A    between atoms: _261  and  _264
REMARK  112  A    between atoms: _264  and  _265
REMARK  113  A    between atoms: _265  and  _266
REMARK  114  A    between atoms: _269  and  _271
REMARK  115  A    between atoms: _271  and  _272
REMARK  116  A    between atoms: _271  and  _274
REMARK  117  A    between atoms: _274  and  _275
REMARK  118  A    between atoms: _280  and  _281
REMARK  119  A    between atoms: _283  and  _285
REMARK  120  A    between atoms: _285  and  _286
REMARK  121  A    between atoms: _285  and  _288
REMARK  122  A    between atoms: _290  and  _292
REMARK  123  A    between atoms: _292  and  _293
REMARK  124  A    between atoms: _292  and  _295
REMARK  125  A    between atoms: _295  and  _296
REMARK  126  A    between atoms: _298  and  _300
REMARK  127  A    between atoms: _300  and  _301
REMARK  128  A    between atoms: _303  and  _305
REMARK  129  A    between atoms: _305  and  _306
REMARK  130  A    between atoms: _308  and  _310
REMARK  131  A    between atoms: _310  and  _311
REMARK  132  A    between atoms: _310  and  _313
REMARK  133  A    between atoms: _313  and  _314
REMARK  134  A    between atoms: _314  and  _315
REMARK  135  A    between atoms: _318  and  _320
REMARK  136  A    between atoms: _320  and  _321
REMARK  137  A    between atoms: _320  and  _323
REMARK  138  A    between atoms: _323  and  _324
REMARK  139  A    between atoms: _327  and  _329
REMARK  140  A    between atoms: _329  and  _330
REMARK  141  A    between atoms: _329  and  _332
REMARK  142  A    between atoms: _332  and  _333
REMARK  143  A    between atoms: _339  and  _341
REMARK  144  A    between atoms: _341  and  _342
REMARK  145  A    between atoms: _341  and  _344
REMARK  146  A    between atoms: _344  and  _345
REMARK  147  A    between atoms: _348  and  _350
REMARK  148  A    between atoms: _350  and  _351
REMARK  149  A    between atoms: _350  and  _353
REMARK  150  A    between atoms: _353  and  _354
REMARK  151  A    between atoms: _359  and  _361
REMARK  152  A    between atoms: _361  and  _362
REMARK  153  A    between atoms: _361  and  _364
REMARK  154  A    between atoms: _364  and  _365
REMARK  155  A    between atoms: _368  and  _370
REMARK  156  A    between atoms: _370  and  _371
REMARK  157  A    between atoms: _370  and  _373
REMARK  158  A    between atoms: _373  and  _374
REMARK  159  A    between atoms: _374  and  _375
REMARK  160  A    between atoms: _375  and  _376
REMARK  161  A    between atoms: _376  and  _377
REMARK  162  A    between atoms: _382  and  _383
REMARK  163  A    between atoms: _388  and  _390
REMARK  164  A    between atoms: _390  and  _391
REMARK  165  A    between atoms: _390  and  _393
REMARK  166  A    between atoms: _393  and  _394
REMARK  167  A    between atoms: _394  and  _395
REMARK  168  A    between atoms: _398  and  _400
REMARK  169  A    between atoms: _400  and  _401
REMARK  170  A    between atoms: _400  and  _403
REMARK  171  A    between atoms: _403  and  _404
REMARK  172  A    between atoms: _409  and  _411
REMARK  173  A    between atoms: _411  and  _412
REMARK  174  A    between atoms: _411  and  _414
REMARK  175  A    between atoms: _414  and  _415
REMARK  176  A    between atoms: _418  and  _420
REMARK  177  A    between atoms: _420  and  _421
REMARK  178  A    between atoms: _420  and  _423
REMARK  179  A    between atoms: _423  and  _424
REMARK  180  A    between atoms: _427  and  _429
REMARK  181  A    between atoms: _429  and  _430
REMARK  182  A    between atoms: _429  and  _432
REMARK  183  A    between atoms: _432  and  _433
REMARK  184  A    between atoms: _436  and  _438
REMARK  185  A    between atoms: _438  and  _439
REMARK  186  A    between atoms: _438  and  _441
REMARK  187  A    between atoms: _441  and  _442
REMARK  188  A    between atoms: _445  and  _447
REMARK  189  A    between atoms: _447  and  _448
REMARK  190  A    between atoms: _447  and  _450
REMARK  191  A    between atoms: _450  and  _451
REMARK  192  A    between atoms: _451  and  _452
REMARK  193  A    between atoms: _452  and  _453
REMARK  194  A    between atoms: _453  and  _454
REMARK  195  A    between atoms: _458  and  _460
REMARK  196  A    between atoms: _460  and  _461
REMARK  197  A    between atoms: _460  and  _463
REMARK  198  A    between atoms: _463  and  _464
REMARK  199  A    between atoms: _467  and  _469
REMARK  200  A    between atoms: _469  and  _470
REMARK  201  A    between atoms: _469  and  _472
REMARK  202  A    between atoms: _472  and  _473
REMARK  203  A    between atoms: _475  and  _477
REMARK  204  A    between atoms: _477  and  _478
REMARK  205  A    between atoms: _477  and  _480
REMARK  206  A    between atoms: _480  and  _481
REMARK  207  A    between atoms: _484  and  _486
REMARK  208  A    between atoms: _486  and  _487
REMARK  209  A    between atoms: _486  and  _489
REMARK  210  A    between atoms: _489  and  _490
REMARK  211  A    between atoms: _496  and  _498
REMARK  212  A    between atoms: _498  and  _499
REMARK  213  A    between atoms: _501  and  _503
REMARK  214  A    between atoms: _503  and  _504
REMARK  215  A    between atoms: _503  and  _506
REMARK  216  A    between atoms: _506  and  _507
REMARK                            x       y       z     vdW  Elec       q    Type
REMARK                         _______ _______ _______ _____ _____    ______ ____
ROOT
ATOM      1  CA  VAL A   4       7.348   2.638  21.429  0.00  0.00    +0.149 C 
ENDROOT
BRANCH   1   4
ATOM      2  C   GLU A   3       8.418   0.494  20.965  0.00  0.00    +0.241 C 
ATOM      3  O   GLU A   3       9.552   0.926  21.142  0.00  0.00    -0.273 OA
ATOM      4  N   VAL A   4       7.326   1.234  21.048  0.00  0.00    -0.297 N 
ATOM      5  H   VAL A   4       6.410   0.793  20.831  0.00  0.00    +0.150 HD
BRANCH   2   6
ATOM      6  CA  GLU A   3       8.170  -0.950  20.580  0.00  0.00    +0.149 C 
BRANCH   6   8
ATOM      7  C   GLY A   2       9.258  -2.664  19.285  0.00  0.00    +0.243 C 
ATOM      8  N   GLU A   3       9.366  -1.605  20.087  0.00  0.00    -0.297 N 
ATOM      9  H   GLU A   3      10.305  -1.250  20.358  0.00  0.00    +0.150 HD
ATOM     10  O   GLY A   2       8.163  -3.159  18.983  0.00  0.00    -0.273 OA
BRANCH   7  11
ATOM     11  CA  GLY A   2      10.550  -3.279  18.770  0.00  0.00    +0.176 C 
BRANCH  11  13
ATOM     12  C   TYR A   1      11.293  -3.371  16.467  0.00  0.00    +0.239 C 
ATOM     13  N   GLY A   2      10.402  -3.716  17.389  0.00  0.00    -0.296 N 
ATOM     14  H   GLY A   2       9.588  -4.306  17.121  0.00  0.00    +0.150 HD
ATOM     15  O   TYR A   1      12.268  -2.664  16.716  0.00  0.00    -0.274 OA
BRANCH  12  16
ATOM     16  CA  TYR A   1      11.027  -3.889  15.044  0.00  0.00    +0.149 C 
BRANCH  16  17
ATOM     17  N   TYR A   1      10.017  -4.936  15.153  0.00  0.00    -0.238 NA
ATOM     18  H   TYR A   1       9.631  -5.155  16.094  0.00  0.00    +0.142 HD
ENDBRANCH  16  17
BRANCH  16  19
ATOM     19  CB  TYR A   1      10.504  -2.738  14.156  0.00  0.00    +0.053 C 
BRANCH  19  20
ATOM     20  CG  TYR A   1       9.387  -1.903  14.794  0.00  0.00    -0.020 A 
ATOM     21  CD2 TYR A   1       9.669  -1.007  15.845  0.00  0.00    -0.001 A 
ATOM     22  CE2 TYR A   1       8.637  -0.325  16.521  0.00  0.00    +0.036 A 
ATOM     23  CZ  TYR A   1       7.316  -0.551  16.135  0.00  0.00    +0.134 A 
ATOM     24  CE1 TYR A   1       7.009  -1.409  15.090  0.00  0.00    +0.036 A 
ATOM     25  CD1 TYR A   1       8.047  -2.083  14.420  0.00  0.00    -0.001 A 
BRANCH  23  26
ATOM     26  OH  TYR A   1       6.293  -0.009  16.885  0.00  0.00    -0.506 OA
ATOM     27  HH  TYR A   1       6.674   0.577  17.586  0.00  0.00    +0.292 HD
ENDBRANCH  23  26
ENDBRANCH  19  20
ENDBRANCH  16  19
ENDBRANCH  12  16
ENDBRANCH  11  13
ENDBRANCH   7  11
ENDBRANCH   6   8
BRANCH   6  28
ATOM     28  CB  GLU A   3       7.569  -1.720  21.758  0.00  0.00    +0.041 C 
BRANCH  28  29
ATOM     29  CG  GLU A   3       7.977  -1.246  23.136  0.00  0.00    +0.116 C 
BRANCH  29  30
ATOM     30  CD  GLU A   3       7.852  -2.354  24.171  0.00  0.00    +0.365 C 
ATOM     31  OE2 GLU A   3       6.821  -2.403  24.895  0.00  0.00    -0.246 OA
ATOM     32  OE1 GLU A   3       8.786  -3.192  24.244  0.00  0.00    -0.246 OA
ENDBRANCH  29  30
ENDBRANCH  28  29
ENDBRANCH   6  28
ENDBRANCH   2   6
ENDBRANCH   1   4
BRANCH   1  33
ATOM     33  C   VAL A   4       6.405   2.764  22.629  0.00  0.00    +0.241 C 
ATOM     34  N   GLN A   5       6.937   3.260  23.740  0.00  0.00    -0.297 N 
ATOM     35  H   GLN A   5       7.938   3.542  23.731  0.00  0.00    +0.150 HD
ATOM     36  O   VAL A   4       5.233   2.408  22.543  0.00  0.00    -0.273 OA
BRANCH  34  37
ATOM     37  CA  GLN A   5       6.175   3.425  24.971  0.00  0.00    +0.149 C 
BRANCH  37  38
ATOM     38  C   GLN A   5       6.082   4.911  25.362  0.00  0.00    +0.241 C 
ATOM     39  N   LEU A   6       4.989   5.263  26.040  0.00  0.00    -0.297 N 
ATOM     40  H   LEU A   6       4.243   4.556  26.201  0.00  0.00    +0.150 HD
ATOM     41  O   GLN A   5       6.993   5.697  25.084  0.00  0.00    -0.273 OA
BRANCH  39  42
ATOM     42  CA  LEU A   6       4.812   6.611  26.561  0.00  0.00    +0.149 C 
BRANCH  42  43
ATOM     43  C   LEU A   6       5.513   6.579  27.904  0.00  0.00    +0.241 C 
ATOM     44  O   LEU A   6       5.205   5.712  28.732  0.00  0.00    -0.273 OA
ATOM     45  N   ALA A   7       6.455   7.478  28.123  0.00  0.00    -0.298 N 
ATOM     46  H   ALA A   7       6.692   8.170  27.383  0.00  0.00    +0.150 HD
BRANCH  45  47
ATOM     47  CA  ALA A   7       7.164   7.506  29.396  0.00  0.00    +0.137 C 
ATOM     48  CB  ALA A   7       8.652   7.475  29.157  0.00  0.00    +0.030 C 
BRANCH  47  49
ATOM     49  C   ALA A   7       6.788   8.775  30.137  0.00  0.00    +0.227 C 
ATOM     50  O   ALA A   7       6.725   9.837  29.535  0.00  0.00    -0.286 OA
ENDBRANCH  47  49
ENDBRANCH  45  47
ENDBRANCH  42  43
BRANCH  42  51
ATOM     51  CB  LEU A   6       3.346   6.914  26.809  0.00  0.00    +0.029 C 
BRANCH  51  52
ATOM     52  CG  LEU A   6       3.080   8.182  27.631  0.00  0.00    +0.002 C 
ATOM     53  CD2 LEU A   6       1.584   8.314  27.876  0.00  0.00    +0.000 C 
ATOM     54  CD1 LEU A   6       3.626   9.412  26.882  0.00  0.00    +0.000 C 
ENDBRANCH  51  52
ENDBRANCH  42  51
ENDBRANCH  39  42
ENDBRANCH  37  38
BRANCH  37  55
ATOM     55  CB  GLN A   5       6.884   2.679  26.137  0.00  0.00    +0.039 C 
BRANCH  55  56
ATOM     56  CG  GLN A   5       6.887   1.119  26.086  0.00  0.00    +0.087 C 
BRANCH  56  57
ATOM     57  CD  GLN A   5       5.533   0.505  26.414  0.00  0.00    +0.219 C 
ATOM     58  OE1 GLN A   5       4.824   0.967  27.314  0.00  0.00    -0.275 OA
ATOM     59  NE2 GLN A   5       5.174  -0.553  25.699  0.00  0.00    -0.329 N 
ATOM     60 HE21 GLN A   5       4.266  -1.025  25.888  0.00  0.00    +0.145 HD
ATOM     61 HE22 GLN A   5       5.800  -0.911  24.950  0.00  0.00    +0.145 HD
ENDBRANCH  56  57
ENDBRANCH  55  56
ENDBRANCH  37  55
ENDBRANCH  34  37
ENDBRANCH   1  33
BRANCH   1  62
ATOM     62  CB  VAL A   4       6.824   3.556  20.287  0.00  0.00    +0.027 C 
ATOM     63  CG2 VAL A   4       6.795   5.014  20.778  0.00  0.00    +0.002 C 
ATOM     64  CG1 VAL A   4       7.723   3.423  19.065  0.00  0.00    +0.002 C 
ENDBRANCH   1  62
TORSDOF 26
REMARK  Name = ../refined-set-2016/1nvr/1nvr_pocket.pdb
REMARK  216 active torsions:
REMARK  status: ('A' for Active; 'I' for Inactive)
REMARK    1  A    between atoms: _1  and  _3
REMARK    2  A    between atoms: _3  and  _4
REMARK    3  A    between atoms: _3  and  _6
REMARK    4  A    between atoms: _6  and  _7
REMARK    5  A    between atoms: _7  and  _8
REMARK    6  A    between atoms: _13  and  _15
REMARK    7  A    between atoms: _15  and  _16
REMARK    8  A    between atoms: _15  and  _18
REMARK    9  A    between atoms: _18  and  _19
REMARK   10  A    between atoms: _22  and  _24
REMARK   11  A    between atoms: _24  and  _25
REMARK   12  A    between atoms: _24  and  _27
REMARK   13  A    between atoms: _27  and  _28
REMARK   14  A    between atoms: _31  and  _33
REMARK   15  A    between atoms: _33  and  _34
REMARK   16  A    between atoms: _36  and  _38
REMARK   17  A    between atoms: _38  and  _39
REMARK   18  A    between atoms: _38  and  _41
REMARK   19  A    between atoms: _41  and  _42
REMARK   20  A    between atoms: _42  and  _43
REMARK   21  A    between atoms: _46  and  _48
REMARK   22  A    between atoms: _48  and  _49
REMARK   23  A    between atoms: _51  and  _53
REMARK   24  A    between atoms: _53  and  _54
REMARK   25  A    between atoms: _53  and  _56
REMARK   26  A    between atoms: _56  and  _57
REMARK   27  A    between atoms: _62  and  _63
REMARK   28  A    between atoms: _65  and  _67
REMARK   29  A    between atoms: _67  and  _68
REMARK   30  A    between atoms: _70  and  _72
REMARK   31  A    between atoms: _72  and  _73
REMARK   32  A    between atoms: _72  and  _75
REMARK   33  A    between atoms: _75  and  _76
REMARK   34  A    between atoms: _76  and  _77
REMARK   35  A    between atoms: _80  and  _82
REMARK   36  A    between atoms: _82  and  _83
REMARK   37  A    between atoms: _82  and  _85
REMARK   38  A    between atoms: _88  and  _90
REMARK   39  A    between atoms: _90  and  _91
REMARK   40  A    between atoms: _90  and  _93
REMARK   41  A    between atoms: _93  and  _94
REMARK   42  A    between atoms: _94  and  _95
REMARK   43  A    between atoms: _100  and  _102
REMARK   44  A    between atoms: _102  and  _103
REMARK   45  A    between atoms: _102  and  _105
REMARK   46  A    between atoms: _105  and  _106
REMARK   47  A    between atoms: _109  and  _111
REMARK   48  A    between atoms: _111  and  _112
REMARK   49  A    between atoms: _115  and  _117
REMARK   50  A    between atoms: _117  and  _118
REMARK   51  A    between atoms: _121  and  _123
REMARK   52  A    between atoms: _123  and  _124
REMARK   53  A    between atoms: _123  and  _126
REMARK   54  A    between atoms: _129  and  _131
REMARK   55  A    between atoms: _131  and  _132
REMARK   56  A    between atoms: _135  and  _137
REMARK   57  A    between atoms: _137  and  _138
REMARK   58  A    between atoms: _137  and  _140
REMARK   59  A    between atoms: _143  and  _145
REMARK   60  A    between atoms: _145  and  _146
REMARK   61  A    between atoms: _145  and  _148
REMARK   62  A    between atoms: _148  and  _149
REMARK   63  A    between atoms: _149  and  _150
REMARK   64  A    between atoms: _150  and  _151
REMARK   65  A    between atoms: _151  and  _152
REMARK   66  A    between atoms: _156  and  _158
REMARK   67  A    between atoms: _158  and  _159
REMARK   68  A    between atoms: _158  and  _161
REMARK   69  A    between atoms: _161  and  _162
REMARK   70  A    between atoms: _165  and  _167
REMARK   71  A    between atoms: _167  and  _168
REMARK   72  A    between atoms: _167  and  _170
REMARK   73  A    between atoms: _173  and  _175
REMARK   74  A    between atoms: _175  and  _176
REMARK   75  A    between atoms: _175  and  _178
REMARK   76  A    between atoms: _178  and  _179
REMARK   77  A    between atoms: _179  and  _180
REMARK   78  A    between atoms: _183  and  _185
REMARK   79  A    between atoms: _185  and  _186
REMARK   80  A    between atoms: _185  and  _188
REMARK   81  A    between atoms: _188  and  _189
REMARK   82  A    between atoms: _194  and  _196
REMARK   83  A    between atoms: _196  and  _197
REMARK   84  A    between atoms: _196  and  _199
REMARK   85  A    between atoms: _202  and  _204
REMARK   86  A    between atoms: _204  and  _205
REMARK   87  A    between atoms: _204  and  _207
REMARK   88  A    between atoms: _207  and  _208
REMARK   89  A    between atoms: _208  and  _209
REMARK   90  A    between atoms: _209  and  _210
REMARK   91  A    between atoms: _210  and  _211
REMARK   92  A    between atoms: _215  and  _217
REMARK   93  A    between atoms: _217  and  _218
REMARK   94  A    between atoms: _217  and  _220
REMARK   95  A    between atoms: _220  and  _221
REMARK   96  A    between atoms: _226  and  _227
REMARK   97  A    between atoms: _229  and  _231
REMARK   98  A    between atoms: _231  and  _232
REMARK   99  A    between atoms: _231  and  _234
REMARK  100  A    between atoms: _234  and  _235
REMARK  101  A    between atoms: _238  and  _240
REMARK  102  A    between atoms: _240  and  _241
REMARK  103  A    between atoms: _240  and  _243
REMARK  104  A    between atoms: _243  and  _244
REMARK  105  A    between atoms: _250  and  _252
REMARK  106  A    between atoms: _252  and  _253
REMARK  107  A    between atoms: _252  and  _255
REMARK  108  A    between atoms: _255  and  _256
REMARK  109  A    between atoms: _259  and  _261
REMARK  110  A    between atoms: _261  and  _262
REMARK  111  A    between atoms: _261  and  _264
REMARK  112  A    between atoms: _264  and  _265
REMARK  113  A    between atoms: _265  and  _266
REMARK  114  A    between atoms: _269  and  _271
REMARK  115  A    between atoms: _271  and  _272
REMARK  116  A    between atoms: _271  and  _274
REMARK  117  A    between atoms: _274  and  _275
REMARK  118  A    between atoms: _280  and  _281
REMARK  119  A    between atoms: _283  and  _285
REMARK  120  A    between atoms: _285  and  _286
REMARK  121  A    between atoms: _285  and  _288
REMARK  122  A    between atoms: _290  and  _292
REMARK  123  A    between atoms: _292  and  _293
REMARK  124  A    between atoms: _292  and  _295
REMARK  125  A    between atoms: _295  and  _296
REMARK  126  A    between atoms: _298  and  _300
REMARK  127  A    between atoms: _300  and  _301
REMARK  128  A    between atoms: _303  and  _305
REMARK  129  A    between atoms: _305  and  _306
REMARK  130  A    between atoms: _308  and  _310
REMARK  131  A    between atoms: _310  and  _311
REMARK  132  A    between atoms: _310  and  _313
REMARK  133  A    between atoms: _313  and  _314
REMARK  134  A    between atoms: _314  and  _315
REMARK  135  A    between atoms: _318  and  _320
REMARK  136  A    between atoms: _320  and  _321
REMARK  137  A    between atoms: _320  and  _323
REMARK  138  A    between atoms: _323  and  _324
REMARK  139  A    between atoms: _327  and  _329
REMARK  140  A    between atoms: _329  and  _330
REMARK  141  A    between atoms: _329  and  _332
REMARK  142  A    between atoms: _332  and  _333
REMARK  143  A    between atoms: _339  and  _341
REMARK  144  A    between atoms: _341  and  _342
REMARK  145  A    between atoms: _341  and  _344
REMARK  146  A    between atoms: _344  and  _345
REMARK  147  A    between atoms: _348  and  _350
REMARK  148  A    between atoms: _350  and  _351
REMARK  149  A    between atoms: _350  and  _353
REMARK  150  A    between atoms: _353  and  _354
REMARK  151  A    between atoms: _359  and  _361
REMARK  152  A    between atoms: _361  and  _362
REMARK  153  A    between atoms: _361  and  _364
REMARK  154  A    between atoms: _364  and  _365
REMARK  155  A    between atoms: _368  and  _370
REMARK  156  A    between atoms: _370  and  _371
REMARK  157  A    between atoms: _370  and  _373
REMARK  158  A    between atoms: _373  and  _374
REMARK  159  A    between atoms: _374  and  _375
REMARK  160  A    between atoms: _375  and  _376
REMARK  161  A    between atoms: _376  and  _377
REMARK  162  A    between atoms: _382  and  _383
REMARK  163  A    between atoms: _388  and  _390
REMARK  164  A    between atoms: _390  and  _391
REMARK  165  A    between atoms: _390  and  _393
REMARK  166  A    between atoms: _393  and  _394
REMARK  167  A    between atoms: _394  and  _395
REMARK  168  A    between atoms: _398  and  _400
REMARK  169  A    between atoms: _400  and  _401
REMARK  170  A    between atoms: _400  and  _403
REMARK  171  A    between atoms: _403  and  _404
REMARK  172  A    between atoms: _409  and  _411
REMARK  173  A    between atoms: _411  and  _412
REMARK  174  A    between atoms: _411  and  _414
REMARK  175  A    between atoms: _414  and  _415
REMARK  176  A    between atoms: _418  and  _420
REMARK  177  A    between atoms: _420  and  _421
REMARK  178  A    between atoms: _420  and  _423
REMARK  179  A    between atoms: _423  and  _424
REMARK  180  A    between atoms: _427  and  _429
REMARK  181  A    between atoms: _429  and  _430
REMARK  182  A    between atoms: _429  and  _432
REMARK  183  A    between atoms: _432  and  _433
REMARK  184  A    between atoms: _436  and  _438
REMARK  185  A    between atoms: _438  and  _439
REMARK  186  A    between atoms: _438  and  _441
REMARK  187  A    between atoms: _441  and  _442
REMARK  188  A    between atoms: _445  and  _447
REMARK  189  A    between atoms: _447  and  _448
REMARK  190  A    between atoms: _447  and  _450
REMARK  191  A    between atoms: _450  and  _451
REMARK  192  A    between atoms: _451  and  _452
REMARK  193  A    between atoms: _452  and  _453
REMARK  194  A    between atoms: _453  and  _454
REMARK  195  A    between atoms: _458  and  _460
REMARK  196  A    between atoms: _460  and  _461
REMARK  197  A    between atoms: _460  and  _463
REMARK  198  A    between atoms: _463  and  _464
REMARK  199  A    between atoms: _467  and  _469
REMARK  200  A    between atoms: _469  and  _470
REMARK  201  A    between atoms: _469  and  _472
REMARK  202  A    between atoms: _472  and  _473
REMARK  203  A    between atoms: _475  and  _477
REMARK  204  A    between atoms: _477  and  _478
REMARK  205  A    between atoms: _477  and  _480
REMARK  206  A    between atoms: _480  and  _481
REMARK  207  A    between atoms: _484  and  _486
REMARK  208  A    between atoms: _486  and  _487
REMARK  209  A    between atoms: _486  and  _489
REMARK  210  A    between atoms: _489  and  _490
REMARK  211  A    between atoms: _496  and  _498
REMARK  212  A    between atoms: _498  and  _499
REMARK  213  A    between atoms: _501  and  _503
REMARK  214  A    between atoms: _503  and  _504
REMARK  215  A    between atoms: _503  and  _506
REMARK  216  A    between atoms: _506  and  _507
REMARK                            x       y       z     vdW  Elec       q    Type
REMARK                         _______ _______ _______ _____ _____    ______ ____
ROOT
ATOM      1  C   VAL A   4      10.579   4.976  23.155  0.00  0.00    +0.241 C 
ATOM      2  O   VAL A   4       9.782   4.079  23.293  0.00  0.00    -0.273 OA
ATOM      3  N   LYS A   5      11.432   5.021  22.150  0.00  0.00    -0.297 N 
ATOM      4  H   LYS A   5      12.058   5.843  22.032  0.00  0.00    +0.150 HD
ENDROOT
BRANCH   3   5
ATOM      5  CA  LYS A   5      11.492   3.910  21.204  0.00  0.00    +0.149 C 
BRANCH   5   6
ATOM      6  C   LYS A   5      12.505   2.909  21.799  0.00  0.00    +0.241 C 
ATOM      7  O   LYS A   5      13.631   3.297  22.152  0.00  0.00    -0.273 OA
ATOM      8  N   ILE A   6      12.094   1.647  21.915  0.00  0.00    -0.297 N 
ATOM      9  H   ILE A   6      11.139   1.394  21.590  0.00  0.00    +0.150 HD
BRANCH   8  10
ATOM     10  CA  ILE A   6      12.951   0.606  22.488  0.00  0.00    +0.149 C 
BRANCH  10  11
ATOM     11  C   ILE A   6      13.258  -0.457  21.439  0.00  0.00    +0.241 C 
ATOM     12  N   VAL A   7      14.544  -0.670  21.178  0.00  0.00    -0.298 N 
ATOM     13  H   VAL A   7      15.270  -0.138  21.698  0.00  0.00    +0.150 HD
ATOM     14  O   ILE A   6      12.339  -1.075  20.884  0.00  0.00    -0.273 OA
BRANCH  12  15
ATOM     15  CA  VAL A   7      14.947  -1.645  20.167  0.00  0.00    +0.137 C 
BRANCH  15  16
ATOM     16  CB  VAL A   7      15.511  -0.915  18.915  0.00  0.00    +0.026 C 
ATOM     17  CG2 VAL A   7      16.896  -0.385  19.193  0.00  0.00    +0.002 C 
ATOM     18  CG1 VAL A   7      14.580   0.238  18.518  0.00  0.00    +0.002 C 
ENDBRANCH  15  16
BRANCH  15  19
ATOM     19  C   VAL A   7      15.975  -2.658  20.674  0.00  0.00    +0.227 C 
ATOM     20  O   VAL A   7      16.991  -2.284  21.269  0.00  0.00    -0.286 OA
ENDBRANCH  15  19
ENDBRANCH  12  15
ENDBRANCH  10  11
BRANCH  10  21
ATOM     21  CB  ILE A   6      12.279  -0.086  23.669  0.00  0.00    +0.027 C 
ATOM     22  CG2 ILE A   6      13.341  -0.878  24.460  0.00  0.00    +0.002 C 
BRANCH  21  23
ATOM     23  CG1 ILE A   6      11.637   0.955  24.598  0.00  0.00    +0.002 C 
ATOM     24  CD1 ILE A   6      10.722   0.342  25.689  0.00  0.00    +0.000 C 
ENDBRANCH  21  23
ENDBRANCH  10  21
ENDBRANCH   8  10
ENDBRANCH   5   6
BRANCH   5  25
ATOM     25  CB  LYS A   5      11.967   4.388  19.826  0.00  0.00    +0.029 C 
BRANCH  25  26
ATOM     26  CG  LYS A   5      11.995   3.260  18.843  0.00  0.00    +0.000 C 
BRANCH  26  27
ATOM     27  CD  LYS A   5      12.283   3.698  17.442  0.00  0.00    -0.024 C 
BRANCH  27  28
ATOM     28  CE  LYS A   5      11.968   2.534  16.517  0.00  0.00    -0.086 C 
BRANCH  28  29
ATOM     29  NZ  LYS A   5      12.807   2.571  15.315  0.00  0.00    +0.380 N 
ATOM     30  HZ1 LYS A   5      13.808   2.515  15.591  0.00  0.00    -0.089 HD
ATOM     31  HZ2 LYS A   5      12.636   3.459  14.802  0.00  0.00    -0.089 HD
ATOM     32  HZ3 LYS A   5      12.569   1.764  14.703  0.00  0.00    -0.089 HD
ENDBRANCH  28  29
ENDBRANCH  27  28
ENDBRANCH  26  27
ENDBRANCH  25  26
ENDBRANCH   5  25
ENDBRANCH   3   5
BRANCH   1  33
ATOM     33  CA  VAL A   4      10.599   6.133  24.125  0.00  0.00    +0.149 C 
BRANCH  33  35
ATOM     34  C   ALA A   3       9.257   8.063  23.796  0.00  0.00    +0.241 C 
ATOM     35  N   VAL A   4       9.301   6.773  24.082  0.00  0.00    -0.297 N 
ATOM     36  H   VAL A   4       8.431   6.235  24.270  0.00  0.00    +0.150 HD
ATOM     37  O   ALA A   3      10.287   8.713  23.587  0.00  0.00    -0.273 OA
BRANCH  34  38
ATOM     38  CA  ALA A   3       7.875   8.723  23.757  0.00  0.00    +0.149 C 
ATOM     39  CB  ALA A   3       7.388   8.813  22.328  0.00  0.00    +0.031 C 
BRANCH  38  42
ATOM     40  C   VAL A   2       7.757  10.244  25.621  0.00  0.00    +0.241 C 
ATOM     41  O   VAL A   2       7.277   9.380  26.318  0.00  0.00    -0.273 OA
ATOM     42  N   ALA A   3       8.037  10.049  24.335  0.00  0.00    -0.297 N 
ATOM     43  H   ALA A   3       8.370  10.839  23.746  0.00  0.00    +0.150 HD
BRANCH  40  44
ATOM     44  CA  VAL A   2       8.009  11.626  26.192  0.00  0.00    +0.148 C 
BRANCH  44  46
ATOM     45  C   ALA A   1       6.534  12.889  27.647  0.00  0.00    +0.238 C 
ATOM     46  N   VAL A   2       7.185  11.763  27.394  0.00  0.00    -0.297 N 
ATOM     47  H   VAL A   2       7.110  10.966  28.058  0.00  0.00    +0.150 HD
ATOM     48  O   ALA A   1       6.627  13.893  26.934  0.00  0.00    -0.274 OA
BRANCH  45  49
ATOM     49  CA  ALA A   1       5.640  12.911  28.886  0.00  0.00    +0.145 C 
ATOM     50  CB  ALA A   1       4.165  12.867  28.431  0.00  0.00    +0.028 C 
BRANCH  49  51
ATOM     51  N   ALA A   1       5.885  14.107  29.692  0.00  0.00    -0.238 NA
ATOM     52  H   ALA A   1       5.560  15.032  29.345  0.00  0.00    +0.142 HD
ENDBRANCH  49  51
ENDBRANCH  45  49
ENDBRANCH  44  46
BRANCH  44  53
ATOM     53  CB  VAL A   2       9.546  11.763  26.482  0.00  0.00    +0.027 C 
ATOM     54  CG2 VAL A   2      10.027  10.659  27.450  0.00  0.00    +0.002 C 
ATOM     55  CG1 VAL A   2       9.851  13.149  27.034  0.00  0.00    +0.002 C 
ENDBRANCH  44  53
ENDBRANCH  40  44
ENDBRANCH  38  42
ENDBRANCH  34  38
ENDBRANCH  33  35
BRANCH  33  56
ATOM     56  CB  VAL A   4      10.930   5.609  25.566  0.00  0.00    +0.027 C 
ATOM     57  CG2 VAL A   4      11.114   6.813  26.529  0.00  0.00    +0.002 C 
ATOM     58  CG1 VAL A   4      12.231   4.770  25.541  0.00  0.00    +0.002 C 
ENDBRANCH  33  56
ENDBRANCH   1  33
TORSDOF 24
REMARK  Name = ../refined-set-2016/1nvr/1nvr_pocket.pdb
REMARK  216 active torsions:
REMARK  status: ('A' for Active; 'I' for Inactive)
REMARK    1  A    between atoms: _1  and  _3
REMARK    2  A    between atoms: _3  and  _4
REMARK    3  A    between atoms: _3  and  _6
REMARK    4  A    between atoms: _6  and  _7
REMARK    5  A    between atoms: _7  and  _8
REMARK    6  A    between atoms: _13  and  _15
REMARK    7  A    between atoms: _15  and  _16
REMARK    8  A    between atoms: _15  and  _18
REMARK    9  A    between atoms: _18  and  _19
REMARK   10  A    between atoms: _22  and  _24
REMARK   11  A    between atoms: _24  and  _25
REMARK   12  A    between atoms: _24  and  _27
REMARK   13  A    between atoms: _27  and  _28
REMARK   14  A    between atoms: _31  and  _33
REMARK   15  A    between atoms: _33  and  _34
REMARK   16  A    between atoms: _36  and  _38
REMARK   17  A    between atoms: _38  and  _39
REMARK   18  A    between atoms: _38  and  _41
REMARK   19  A    between atoms: _41  and  _42
REMARK   20  A    between atoms: _42  and  _43
REMARK   21  A    between atoms: _46  and  _48
REMARK   22  A    between atoms: _48  and  _49
REMARK   23  A    between atoms: _51  and  _53
REMARK   24  A    between atoms: _53  and  _54
REMARK   25  A    between atoms: _53  and  _56
REMARK   26  A    between atoms: _56  and  _57
REMARK   27  A    between atoms: _62  and  _63
REMARK   28  A    between atoms: _65  and  _67
REMARK   29  A    between atoms: _67  and  _68
REMARK   30  A    between atoms: _70  and  _72
REMARK   31  A    between atoms: _72  and  _73
REMARK   32  A    between atoms: _72  and  _75
REMARK   33  A    between atoms: _75  and  _76
REMARK   34  A    between atoms: _76  and  _77
REMARK   35  A    between atoms: _80  and  _82
REMARK   36  A    between atoms: _82  and  _83
REMARK   37  A    between atoms: _82  and  _85
REMARK   38  A    between atoms: _88  and  _90
REMARK   39  A    between atoms: _90  and  _91
REMARK   40  A    between atoms: _90  and  _93
REMARK   41  A    between atoms: _93  and  _94
REMARK   42  A    between atoms: _94  and  _95
REMARK   43  A    between atoms: _100  and  _102
REMARK   44  A    between atoms: _102  and  _103
REMARK   45  A    between atoms: _102  and  _105
REMARK   46  A    between atoms: _105  and  _106
REMARK   47  A    between atoms: _109  and  _111
REMARK   48  A    between atoms: _111  and  _112
REMARK   49  A    between atoms: _115  and  _117
REMARK   50  A    between atoms: _117  and  _118
REMARK   51  A    between atoms: _121  and  _123
REMARK   52  A    between atoms: _123  and  _124
REMARK   53  A    between atoms: _123  and  _126
REMARK   54  A    between atoms: _129  and  _131
REMARK   55  A    between atoms: _131  and  _132
REMARK   56  A    between atoms: _135  and  _137
REMARK   57  A    between atoms: _137  and  _138
REMARK   58  A    between atoms: _137  and  _140
REMARK   59  A    between atoms: _143  and  _145
REMARK   60  A    between atoms: _145  and  _146
REMARK   61  A    between atoms: _145  and  _148
REMARK   62  A    between atoms: _148  and  _149
REMARK   63  A    between atoms: _149  and  _150
REMARK   64  A    between atoms: _150  and  _151
REMARK   65  A    between atoms: _151  and  _152
REMARK   66  A    between atoms: _156  and  _158
REMARK   67  A    between atoms: _158  and  _159
REMARK   68  A    between atoms: _158  and  _161
REMARK   69  A    between atoms: _161  and  _162
REMARK   70  A    between atoms: _165  and  _167
REMARK   71  A    between atoms: _167  and  _168
REMARK   72  A    between atoms: _167  and  _170
REMARK   73  A    between atoms: _173  and  _175
REMARK   74  A    between atoms: _175  and  _176
REMARK   75  A    between atoms: _175  and  _178
REMARK   76  A    between atoms: _178  and  _179
REMARK   77  A    between atoms: _179  and  _180
REMARK   78  A    between atoms: _183  and  _185
REMARK   79  A    between atoms: _185  and  _186
REMARK   80  A    between atoms: _185  and  _188
REMARK   81  A    between atoms: _188  and  _189
REMARK   82  A    between atoms: _194  and  _196
REMARK   83  A    between atoms: _196  and  _197
REMARK   84  A    between atoms: _196  and  _199
REMARK   85  A    between atoms: _202  and  _204
REMARK   86  A    between atoms: _204  and  _205
REMARK   87  A    between atoms: _204  and  _207
REMARK   88  A    between atoms: _207  and  _208
REMARK   89  A    between atoms: _208  and  _209
REMARK   90  A    between atoms: _209  and  _210
REMARK   91  A    between atoms: _210  and  _211
REMARK   92  A    between atoms: _215  and  _217
REMARK   93  A    between atoms: _217  and  _218
REMARK   94  A    between atoms: _217  and  _220
REMARK   95  A    between atoms: _220  and  _221
REMARK   96  A    between atoms: _226  and  _227
REMARK   97  A    between atoms: _229  and  _231
REMARK   98  A    between atoms: _231  and  _232
REMARK   99  A    between atoms: _231  and  _234
REMARK  100  A    between atoms: _234  and  _235
REMARK  101  A    between atoms: _238  and  _240
REMARK  102  A    between atoms: _240  and  _241
REMARK  103  A    between atoms: _240  and  _243
REMARK  104  A    between atoms: _243  and  _244
REMARK  105  A    between atoms: _250  and  _252
REMARK  106  A    between atoms: _252  and  _253
REMARK  107  A    between atoms: _252  and  _255
REMARK  108  A    between atoms: _255  and  _256
REMARK  109  A    between atoms: _259  and  _261
REMARK  110  A    between atoms: _261  and  _262
REMARK  111  A    between atoms: _261  and  _264
REMARK  112  A    between atoms: _264  and  _265
REMARK  113  A    between atoms: _265  and  _266
REMARK  114  A    between atoms: _269  and  _271
REMARK  115  A    between atoms: _271  and  _272
REMARK  116  A    between atoms: _271  and  _274
REMARK  117  A    between atoms: _274  and  _275
REMARK  118  A    between atoms: _280  and  _281
REMARK  119  A    between atoms: _283  and  _285
REMARK  120  A    between atoms: _285  and  _286
REMARK  121  A    between atoms: _285  and  _288
REMARK  122  A    between atoms: _290  and  _292
REMARK  123  A    between atoms: _292  and  _293
REMARK  124  A    between atoms: _292  and  _295
REMARK  125  A    between atoms: _295  and  _296
REMARK  126  A    between atoms: _298  and  _300
REMARK  127  A    between atoms: _300  and  _301
REMARK  128  A    between atoms: _303  and  _305
REMARK  129  A    between atoms: _305  and  _306
REMARK  130  A    between atoms: _308  and  _310
REMARK  131  A    between atoms: _310  and  _311
REMARK  132  A    between atoms: _310  and  _313
REMARK  133  A    between atoms: _313  and  _314
REMARK  134  A    between atoms: _314  and  _315
REMARK  135  A    between atoms: _318  and  _320
REMARK  136  A    between atoms: _320  and  _321
REMARK  137  A    between atoms: _320  and  _323
REMARK  138  A    between atoms: _323  and  _324
REMARK  139  A    between atoms: _327  and  _329
REMARK  140  A    between atoms: _329  and  _330
REMARK  141  A    between atoms: _329  and  _332
REMARK  142  A    between atoms: _332  and  _333
REMARK  143  A    between atoms: _339  and  _341
REMARK  144  A    between atoms: _341  and  _342
REMARK  145  A    between atoms: _341  and  _344
REMARK  146  A    between atoms: _344  and  _345
REMARK  147  A    between atoms: _348  and  _350
REMARK  148  A    between atoms: _350  and  _351
REMARK  149  A    between atoms: _350  and  _353
REMARK  150  A    between atoms: _353  and  _354
REMARK  151  A    between atoms: _359  and  _361
REMARK  152  A    between atoms: _361  and  _362
REMARK  153  A    between atoms: _361  and  _364
REMARK  154  A    between atoms: _364  and  _365
REMARK  155  A    between atoms: _368  and  _370
REMARK  156  A    between atoms: _370  and  _371
REMARK  157  A    between atoms: _370  and  _373
REMARK  158  A    between atoms: _373  and  _374
REMARK  159  A    between atoms: _374  and  _375
REMARK  160  A    between atoms: _375  and  _376
REMARK  161  A    between atoms: _376  and  _377
REMARK  162  A    between atoms: _382  and  _383
REMARK  163  A    between atoms: _388  and  _390
REMARK  164  A    between atoms: _390  and  _391
REMARK  165  A    between atoms: _390  and  _393
REMARK  166  A    between atoms: _393  and  _394
REMARK  167  A    between atoms: _394  and  _395
REMARK  168  A    between atoms: _398  and  _400
REMARK  169  A    between atoms: _400  and  _401
REMARK  170  A    between atoms: _400  and  _403
REMARK  171  A    between atoms: _403  and  _404
REMARK  172  A    between atoms: _409  and  _411
REMARK  173  A    between atoms: _411  and  _412
REMARK  174  A    between atoms: _411  and  _414
REMARK  175  A    between atoms: _414  and  _415
REMARK  176  A    between atoms: _418  and  _420
REMARK  177  A    between atoms: _420  and  _421
REMARK  178  A    between atoms: _420  and  _423
REMARK  179  A    between atoms: _423  and  _424
REMARK  180  A    between atoms: _427  and  _429
REMARK  181  A    between atoms: _429  and  _430
REMARK  182  A    between atoms: _429  and  _432
REMARK  183  A    between atoms: _432  and  _433
REMARK  184  A    between atoms: _436  and  _438
REMARK  185  A    between atoms: _438  and  _439
REMARK  186  A    between atoms: _438  and  _441
REMARK  187  A    between atoms: _441  and  _442
REMARK  188  A    between atoms: _445  and  _447
REMARK  189  A    between atoms: _447  and  _448
REMARK  190  A    between atoms: _447  and  _450
REMARK  191  A    between atoms: _450  and  _451
REMARK  192  A    between atoms: _451  and  _452
REMARK  193  A    between atoms: _452  and  _453
REMARK  194  A    between atoms: _453  and  _454
REMARK  195  A    between atoms: _458  and  _460
REMARK  196  A    between atoms: _460  and  _461
REMARK  197  A    between atoms: _460  and  _463
REMARK  198  A    between atoms: _463  and  _464
REMARK  199  A    between atoms: _467  and  _469
REMARK  200  A    between atoms: _469  and  _470
REMARK  201  A    between atoms: _469  and  _472
REMARK  202  A    between atoms: _472  and  _473
REMARK  203  A    between atoms: _475  and  _477
REMARK  204  A    between atoms: _477  and  _478
REMARK  205  A    between atoms: _477  and  _480
REMARK  206  A    between atoms: _480  and  _481
REMARK  207  A    between atoms: _484  and  _486
REMARK  208  A    between atoms: _486  and  _487
REMARK  209  A    between atoms: _486  and  _489
REMARK  210  A    between atoms: _489  and  _490
REMARK  211  A    between atoms: _496  and  _498
REMARK  212  A    between atoms: _498  and  _499
REMARK  213  A    between atoms: _501  and  _503
REMARK  214  A    between atoms: _503  and  _504
REMARK  215  A    between atoms: _503  and  _506
REMARK  216  A    between atoms: _506  and  _507
REMARK                            x       y       z     vdW  Elec       q    Type
REMARK                         _______ _______ _______ _____ _____    ______ ____
ROOT
ATOM      1  CA  GLU A   1      18.526   6.635  12.485  0.00  0.00    +0.134 C 
ENDROOT
BRANCH   1   2
ATOM      2  N   GLU A   1      19.758   5.936  12.087  0.00  0.00    -0.239 NA
ATOM      3  H   GLU A   1      19.825   4.903  12.192  0.00  0.00    +0.142 HD
ENDBRANCH   1   2
BRANCH   1   4
ATOM      4  C   GLU A   1      18.894   7.660  13.571  0.00  0.00    +0.224 C 
ATOM      5  O   GLU A   1      18.441   8.808  13.559  0.00  0.00    -0.287 OA
ENDBRANCH   1   4
BRANCH   1   6
ATOM      6  CB  GLU A   1      17.469   5.653  13.031  0.00  0.00    +0.037 C 
BRANCH   6   7
ATOM      7  CG  GLU A   1      16.040   6.273  13.299  0.00  0.00    +0.116 C 
BRANCH   7   8
ATOM      8  CD  GLU A   1      14.985   5.233  13.767  0.00  0.00    +0.365 C 
ATOM      9  OE2 GLU A   1      13.909   5.599  14.316  0.00  0.00    -0.246 OA
ATOM     10  OE1 GLU A   1      15.233   4.029  13.571  0.00  0.00    -0.246 OA
ENDBRANCH   7   8
ENDBRANCH   6   7
ENDBRANCH   1   6
TORSDOF 5
REMARK  Name = ../refined-set-2016/1nvr/1nvr_pocket.pdb
REMARK  216 active torsions:
REMARK  status: ('A' for Active; 'I' for Inactive)
REMARK    1  A    between atoms: _1  and  _3
REMARK    2  A    between atoms: _3  and  _4
REMARK    3  A    between atoms: _3  and  _6
REMARK    4  A    between atoms: _6  and  _7
REMARK    5  A    between atoms: _7  and  _8
REMARK    6  A    between atoms: _13  and  _15
REMARK    7  A    between atoms: _15  and  _16
REMARK    8  A    between atoms: _15  and  _18
REMARK    9  A    between atoms: _18  and  _19
REMARK   10  A    between atoms: _22  and  _24
REMARK   11  A    between atoms: _24  and  _25
REMARK   12  A    between atoms: _24  and  _27
REMARK   13  A    between atoms: _27  and  _28
REMARK   14  A    between atoms: _31  and  _33
REMARK   15  A    between atoms: _33  and  _34
REMARK   16  A    between atoms: _36  and  _38
REMARK   17  A    between atoms: _38  and  _39
REMARK   18  A    between atoms: _38  and  _41
REMARK   19  A    between atoms: _41  and  _42
REMARK   20  A    between atoms: _42  and  _43
REMARK   21  A    between atoms: _46  and  _48
REMARK   22  A    between atoms: _48  and  _49
REMARK   23  A    between atoms: _51  and  _53
REMARK   24  A    between atoms: _53  and  _54
REMARK   25  A    between atoms: _53  and  _56
REMARK   26  A    between atoms: _56  and  _57
REMARK   27  A    between atoms: _62  and  _63
REMARK   28  A    between atoms: _65  and  _67
REMARK   29  A    between atoms: _67  and  _68
REMARK   30  A    between atoms: _70  and  _72
REMARK   31  A    between atoms: _72  and  _73
REMARK   32  A    between atoms: _72  and  _75
REMARK   33  A    between atoms: _75  and  _76
REMARK   34  A    between atoms: _76  and  _77
REMARK   35  A    between atoms: _80  and  _82
REMARK   36  A    between atoms: _82  and  _83
REMARK   37  A    between atoms: _82  and  _85
REMARK   38  A    between atoms: _88  and  _90
REMARK   39  A    between atoms: _90  and  _91
REMARK   40  A    between atoms: _90  and  _93
REMARK   41  A    between atoms: _93  and  _94
REMARK   42  A    between atoms: _94  and  _95
REMARK   43  A    between atoms: _100  and  _102
REMARK   44  A    between atoms: _102  and  _103
REMARK   45  A    between atoms: _102  and  _105
REMARK   46  A    between atoms: _105  and  _106
REMARK   47  A    between atoms: _109  and  _111
REMARK   48  A    between atoms: _111  and  _112
REMARK   49  A    between atoms: _115  and  _117
REMARK   50  A    between atoms: _117  and  _118
REMARK   51  A    between atoms: _121  and  _123
REMARK   52  A    between atoms: _123  and  _124
REMARK   53  A    between atoms: _123  and  _126
REMARK   54  A    between atoms: _129  and  _131
REMARK   55  A    between atoms: _131  and  _132
REMARK   56  A    between atoms: _135  and  _137
REMARK   57  A    between atoms: _137  and  _138
REMARK   58  A    between atoms: _137  and  _140
REMARK   59  A    between atoms: _143  and  _145
REMARK   60  A    between atoms: _145  and  _146
REMARK   61  A    between atoms: _145  and  _148
REMARK   62  A    between atoms: _148  and  _149
REMARK   63  A    between atoms: _149  and  _150
REMARK   64  A    between atoms: _150  and  _151
REMARK   65  A    between atoms: _151  and  _152
REMARK   66  A    between atoms: _156  and  _158
REMARK   67  A    between atoms: _158  and  _159
REMARK   68  A    between atoms: _158  and  _161
REMARK   69  A    between atoms: _161  and  _162
REMARK   70  A    between atoms: _165  and  _167
REMARK   71  A    between atoms: _167  and  _168
REMARK   72  A    between atoms: _167  and  _170
REMARK   73  A    between atoms: _173  and  _175
REMARK   74  A    between atoms: _175  and  _176
REMARK   75  A    between atoms: _175  and  _178
REMARK   76  A    between atoms: _178  and  _179
REMARK   77  A    between atoms: _179  and  _180
REMARK   78  A    between atoms: _183  and  _185
REMARK   79  A    between atoms: _185  and  _186
REMARK   80  A    between atoms: _185  and  _188
REMARK   81  A    between atoms: _188  and  _189
REMARK   82  A    between atoms: _194  and  _196
REMARK   83  A    between atoms: _196  and  _197
REMARK   84  A    between atoms: _196  and  _199
REMARK   85  A    between atoms: _202  and  _204
REMARK   86  A    between atoms: _204  and  _205
REMARK   87  A    between atoms: _204  and  _207
REMARK   88  A    between atoms: _207  and  _208
REMARK   89  A    between atoms: _208  and  _209
REMARK   90  A    between atoms: _209  and  _210
REMARK   91  A    between atoms: _210  and  _211
REMARK   92  A    between atoms: _215  and  _217
REMARK   93  A    between atoms: _217  and  _218
REMARK   94  A    between atoms: _217  and  _220
REMARK   95  A    between atoms: _220  and  _221
REMARK   96  A    between atoms: _226  and  _227
REMARK   97  A    between atoms: _229  and  _231
REMARK   98  A    between atoms: _231  and  _232
REMARK   99  A    between atoms: _231  and  _234
REMARK  100  A    between atoms: _234  and  _235
REMARK  101  A    between atoms: _238  and  _240
REMARK  102  A    between atoms: _240  and  _241
REMARK  103  A    between atoms: _240  and  _243
REMARK  104  A    between atoms: _243  and  _244
REMARK  105  A    between atoms: _250  and  _252
REMARK  106  A    between atoms: _252  and  _253
REMARK  107  A    between atoms: _252  and  _255
REMARK  108  A    between atoms: _255  and  _256
REMARK  109  A    between atoms: _259  and  _261
REMARK  110  A    between atoms: _261  and  _262
REMARK  111  A    between atoms: _261  and  _264
REMARK  112  A    between atoms: _264  and  _265
REMARK  113  A    between atoms: _265  and  _266
REMARK  114  A    between atoms: _269  and  _271
REMARK  115  A    between atoms: _271  and  _272
REMARK  116  A    between atoms: _271  and  _274
REMARK  117  A    between atoms: _274  and  _275
REMARK  118  A    between atoms: _280  and  _281
REMARK  119  A    between atoms: _283  and  _285
REMARK  120  A    between atoms: _285  and  _286
REMARK  121  A    between atoms: _285  and  _288
REMARK  122  A    between atoms: _290  and  _292
REMARK  123  A    between atoms: _292  and  _293
REMARK  124  A    between atoms: _292  and  _295
REMARK  125  A    between atoms: _295  and  _296
REMARK  126  A    between atoms: _298  and  _300
REMARK  127  A    between atoms: _300  and  _301
REMARK  128  A    between atoms: _303  and  _305
REMARK  129  A    between atoms: _305  and  _306
REMARK  130  A    between atoms: _308  and  _310
REMARK  131  A    between atoms: _310  and  _311
REMARK  132  A    between atoms: _310  and  _313
REMARK  133  A    between atoms: _313  and  _314
REMARK  134  A    between atoms: _314  and  _315
REMARK  135  A    between atoms: _318  and  _320
REMARK  136  A    between atoms: _320  and  _321
REMARK  137  A    between atoms: _320  and  _323
REMARK  138  A    between atoms: _323  and  _324
REMARK  139  A    between atoms: _327  and  _329
REMARK  140  A    between atoms: _329  and  _330
REMARK  141  A    between atoms: _329  and  _332
REMARK  142  A    between atoms: _332  and  _333
REMARK  143  A    between atoms: _339  and  _341
REMARK  144  A    between atoms: _341  and  _342
REMARK  145  A    between atoms: _341  and  _344
REMARK  146  A    between atoms: _344  and  _345
REMARK  147  A    between atoms: _348  and  _350
REMARK  148  A    between atoms: _350  and  _351
REMARK  149  A    between atoms: _350  and  _353
REMARK  150  A    between atoms: _353  and  _354
REMARK  151  A    between atoms: _359  and  _361
REMARK  152  A    between atoms: _361  and  _362
REMARK  153  A    between atoms: _361  and  _364
REMARK  154  A    between atoms: _364  and  _365
REMARK  155  A    between atoms: _368  and  _370
REMARK  156  A    between atoms: _370  and  _371
REMARK  157  A    between atoms: _370  and  _373
REMARK  158  A    between atoms: _373  and  _374
REMARK  159  A    between atoms: _374  and  _375
REMARK  160  A    between atoms: _375  and  _376
REMARK  161  A    between atoms: _376  and  _377
REMARK  162  A    between atoms: _382  and  _383
REMARK  163  A    between atoms: _388  and  _390
REMARK  164  A    between atoms: _390  and  _391
REMARK  165  A    between atoms: _390  and  _393
REMARK  166  A    between atoms: _393  and  _394
REMARK  167  A    between atoms: _394  and  _395
REMARK  168  A    between atoms: _398  and  _400
REMARK  169  A    between atoms: _400  and  _401
REMARK  170  A    between atoms: _400  and  _403
REMARK  171  A    between atoms: _403  and  _404
REMARK  172  A    between atoms: _409  and  _411
REMARK  173  A    between atoms: _411  and  _412
REMARK  174  A    between atoms: _411  and  _414
REMARK  175  A    between atoms: _414  and  _415
REMARK  176  A    between atoms: _418  and  _420
REMARK  177  A    between atoms: _420  and  _421
REMARK  178  A    between atoms: _420  and  _423
REMARK  179  A    between atoms: _423  and  _424
REMARK  180  A    between atoms: _427  and  _429
REMARK  181  A    between atoms: _429  and  _430
REMARK  182  A    between atoms: _429  and  _432
REMARK  183  A    between atoms: _432  and  _433
REMARK  184  A    between atoms: _436  and  _438
REMARK  185  A    between atoms: _438  and  _439
REMARK  186  A    between atoms: _438  and  _441
REMARK  187  A    between atoms: _441  and  _442
REMARK  188  A    between atoms: _445  and  _447
REMARK  189  A    between atoms: _447  and  _448
REMARK  190  A    between atoms: _447  and  _450
REMARK  191  A    between atoms: _450  and  _451
REMARK  192  A    between atoms: _451  and  _452
REMARK  193  A    between atoms: _452  and  _453
REMARK  194  A    between atoms: _453  and  _454
REMARK  195  A    between atoms: _458  and  _460
REMARK  196  A    between atoms: _460  and  _461
REMARK  197  A    between atoms: _460  and  _463
REMARK  198  A    between atoms: _463  and  _464
REMARK  199  A    between atoms: _467  and  _469
REMARK  200  A    between atoms: _469  and  _470
REMARK  201  A    between atoms: _469  and  _472
REMARK  202  A    between atoms: _472  and  _473
REMARK  203  A    between atoms: _475  and  _477
REMARK  204  A    between atoms: _477  and  _478
REMARK  205  A    between atoms: _477  and  _480
REMARK  206  A    between atoms: _480  and  _481
REMARK  207  A    between atoms: _484  and  _486
REMARK  208  A    between atoms: _486  and  _487
REMARK  209  A    between atoms: _486  and  _489
REMARK  210  A    between atoms: _489  and  _490
REMARK  211  A    between atoms: _496  and  _498
REMARK  212  A    between atoms: _498  and  _499
REMARK  213  A    between atoms: _501  and  _503
REMARK  214  A    between atoms: _503  and  _504
REMARK  215  A    between atoms: _503  and  _506
REMARK  216  A    between atoms: _506  and  _507
REMARK                            x       y       z     vdW  Elec       q    Type
REMARK                         _______ _______ _______ _____ _____    ______ ____
ROOT
ATOM      1  CB  ASN A   1      16.916  11.167  15.358  0.00  0.00    +0.110 C 
ENDROOT
BRANCH   1   2
ATOM      2  CG  ASN A   1      15.671  10.442  14.860  0.00  0.00    +0.221 C 
ATOM      3  OD1 ASN A   1      14.567  10.934  15.026  0.00  0.00    -0.275 OA
ATOM      4  ND2 ASN A   1      15.847   9.303  14.236  0.00  0.00    -0.329 N 
ATOM      5 HD21 ASN A   1      16.806   8.919  14.116  0.00  0.00    +0.145 HD
ATOM      6 HD22 ASN A   1      15.028   8.784  13.861  0.00  0.00    +0.145 HD
ENDBRANCH   1   2
BRANCH   1   7
ATOM      7  CA  ASN A   1      17.419  12.203  14.354  0.00  0.00    +0.142 C 
BRANCH   7   8
ATOM      8  N   ASN A   1      18.287  11.558  13.360  0.00  0.00    -0.239 NA
ATOM      9  H   ASN A   1      18.531  10.552  13.458  0.00  0.00    +0.142 HD
ENDBRANCH   7   8
BRANCH   7  10
ATOM     10  C   ASN A   1      18.104  13.369  15.082  0.00  0.00    +0.225 C 
ATOM     11  O   ASN A   1      17.457  14.337  15.467  0.00  0.00    -0.287 OA
ENDBRANCH   7  10
ENDBRANCH   1   7
TORSDOF 4
REMARK  Name = ../refined-set-2016/1nvr/1nvr_pocket.pdb
REMARK  216 active torsions:
REMARK  status: ('A' for Active; 'I' for Inactive)
REMARK    1  A    between atoms: _1  and  _3
REMARK    2  A    between atoms: _3  and  _4
REMARK    3  A    between atoms: _3  and  _6
REMARK    4  A    between atoms: _6  and  _7
REMARK    5  A    between atoms: _7  and  _8
REMARK    6  A    between atoms: _13  and  _15
REMARK    7  A    between atoms: _15  and  _16
REMARK    8  A    between atoms: _15  and  _18
REMARK    9  A    between atoms: _18  and  _19
REMARK   10  A    between atoms: _22  and  _24
REMARK   11  A    between atoms: _24  and  _25
REMARK   12  A    between atoms: _24  and  _27
REMARK   13  A    between atoms: _27  and  _28
REMARK   14  A    between atoms: _31  and  _33
REMARK   15  A    between atoms: _33  and  _34
REMARK   16  A    between atoms: _36  and  _38
REMARK   17  A    between atoms: _38  and  _39
REMARK   18  A    between atoms: _38  and  _41
REMARK   19  A    between atoms: _41  and  _42
REMARK   20  A    between atoms: _42  and  _43
REMARK   21  A    between atoms: _46  and  _48
REMARK   22  A    between atoms: _48  and  _49
REMARK   23  A    between atoms: _51  and  _53
REMARK   24  A    between atoms: _53  and  _54
REMARK   25  A    between atoms: _53  and  _56
REMARK   26  A    between atoms: _56  and  _57
REMARK   27  A    between atoms: _62  and  _63
REMARK   28  A    between atoms: _65  and  _67
REMARK   29  A    between atoms: _67  and  _68
REMARK   30  A    between atoms: _70  and  _72
REMARK   31  A    between atoms: _72  and  _73
REMARK   32  A    between atoms: _72  and  _75
REMARK   33  A    between atoms: _75  and  _76
REMARK   34  A    between atoms: _76  and  _77
REMARK   35  A    between atoms: _80  and  _82
REMARK   36  A    between atoms: _82  and  _83
REMARK   37  A    between atoms: _82  and  _85
REMARK   38  A    between atoms: _88  and  _90
REMARK   39  A    between atoms: _90  and  _91
REMARK   40  A    between atoms: _90  and  _93
REMARK   41  A    between atoms: _93  and  _94
REMARK   42  A    between atoms: _94  and  _95
REMARK   43  A    between atoms: _100  and  _102
REMARK   44  A    between atoms: _102  and  _103
REMARK   45  A    between atoms: _102  and  _105
REMARK   46  A    between atoms: _105  and  _106
REMARK   47  A    between atoms: _109  and  _111
REMARK   48  A    between atoms: _111  and  _112
REMARK   49  A    between atoms: _115  and  _117
REMARK   50  A    between atoms: _117  and  _118
REMARK   51  A    between atoms: _121  and  _123
REMARK   52  A    between atoms: _123  and  _124
REMARK   53  A    between atoms: _123  and  _126
REMARK   54  A    between atoms: _129  and  _131
REMARK   55  A    between atoms: _131  and  _132
REMARK   56  A    between atoms: _135  and  _137
REMARK   57  A    between atoms: _137  and  _138
REMARK   58  A    between atoms: _137  and  _140
REMARK   59  A    between atoms: _143  and  _145
REMARK   60  A    between atoms: _145  and  _146
REMARK   61  A    between atoms: _145  and  _148
REMARK   62  A    between atoms: _148  and  _149
REMARK   63  A    between atoms: _149  and  _150
REMARK   64  A    between atoms: _150  and  _151
REMARK   65  A    between atoms: _151  and  _152
REMARK   66  A    between atoms: _156  and  _158
REMARK   67  A    between atoms: _158  and  _159
REMARK   68  A    between atoms: _158  and  _161
REMARK   69  A    between atoms: _161  and  _162
REMARK   70  A    between atoms: _165  and  _167
REMARK   71  A    between atoms: _167  and  _168
REMARK   72  A    between atoms: _167  and  _170
REMARK   73  A    between atoms: _173  and  _175
REMARK   74  A    between atoms: _175  and  _176
REMARK   75  A    between atoms: _175  and  _178
REMARK   76  A    between atoms: _178  and  _179
REMARK   77  A    between atoms: _179  and  _180
REMARK   78  A    between atoms: _183  and  _185
REMARK   79  A    between atoms: _185  and  _186
REMARK   80  A    between atoms: _185  and  _188
REMARK   81  A    between atoms: _188  and  _189
REMARK   82  A    between atoms: _194  and  _196
REMARK   83  A    between atoms: _196  and  _197
REMARK   84  A    between atoms: _196  and  _199
REMARK   85  A    between atoms: _202  and  _204
REMARK   86  A    between atoms: _204  and  _205
REMARK   87  A    between atoms: _204  and  _207
REMARK   88  A    between atoms: _207  and  _208
REMARK   89  A    between atoms: _208  and  _209
REMARK   90  A    between atoms: _209  and  _210
REMARK   91  A    between atoms: _210  and  _211
REMARK   92  A    between atoms: _215  and  _217
REMARK   93  A    between atoms: _217  and  _218
REMARK   94  A    between atoms: _217  and  _220
REMARK   95  A    between atoms: _220  and  _221
REMARK   96  A    between atoms: _226  and  _227
REMARK   97  A    between atoms: _229  and  _231
REMARK   98  A    between atoms: _231  and  _232
REMARK   99  A    between atoms: _231  and  _234
REMARK  100  A    between atoms: _234  and  _235
REMARK  101  A    between atoms: _238  and  _240
REMARK  102  A    between atoms: _240  and  _241
REMARK  103  A    between atoms: _240  and  _243
REMARK  104  A    between atoms: _243  and  _244
REMARK  105  A    between atoms: _250  and  _252
REMARK  106  A    between atoms: _252  and  _253
REMARK  107  A    between atoms: _252  and  _255
REMARK  108  A    between atoms: _255  and  _256
REMARK  109  A    between atoms: _259  and  _261
REMARK  110  A    between atoms: _261  and  _262
REMARK  111  A    between atoms: _261  and  _264
REMARK  112  A    between atoms: _264  and  _265
REMARK  113  A    between atoms: _265  and  _266
REMARK  114  A    between atoms: _269  and  _271
REMARK  115  A    between atoms: _271  and  _272
REMARK  116  A    between atoms: _271  and  _274
REMARK  117  A    between atoms: _274  and  _275
REMARK  118  A    between atoms: _280  and  _281
REMARK  119  A    between atoms: _283  and  _285
REMARK  120  A    between atoms: _285  and  _286
REMARK  121  A    between atoms: _285  and  _288
REMARK  122  A    between atoms: _290  and  _292
REMARK  123  A    between atoms: _292  and  _293
REMARK  124  A    between atoms: _292  and  _295
REMARK  125  A    between atoms: _295  and  _296
REMARK  126  A    between atoms: _298  and  _300
REMARK  127  A    between atoms: _300  and  _301
REMARK  128  A    between atoms: _303  and  _305
REMARK  129  A    between atoms: _305  and  _306
REMARK  130  A    between atoms: _308  and  _310
REMARK  131  A    between atoms: _310  and  _311
REMARK  132  A    between atoms: _310  and  _313
REMARK  133  A    between atoms: _313  and  _314
REMARK  134  A    between atoms: _314  and  _315
REMARK  135  A    between atoms: _318  and  _320
REMARK  136  A    between atoms: _320  and  _321
REMARK  137  A    between atoms: _320  and  _323
REMARK  138  A    between atoms: _323  and  _324
REMARK  139  A    between atoms: _327  and  _329
REMARK  140  A    between atoms: _329  and  _330
REMARK  141  A    between atoms: _329  and  _332
REMARK  142  A    between atoms: _332  and  _333
REMARK  143  A    between atoms: _339  and  _341
REMARK  144  A    between atoms: _341  and  _342
REMARK  145  A    between atoms: _341  and  _344
REMARK  146  A    between atoms: _344  and  _345
REMARK  147  A    between atoms: _348  and  _350
REMARK  148  A    between atoms: _350  and  _351
REMARK  149  A    between atoms: _350  and  _353
REMARK  150  A    between atoms: _353  and  _354
REMARK  151  A    between atoms: _359  and  _361
REMARK  152  A    between atoms: _361  and  _362
REMARK  153  A    between atoms: _361  and  _364
REMARK  154  A    between atoms: _364  and  _365
REMARK  155  A    between atoms: _368  and  _370
REMARK  156  A    between atoms: _370  and  _371
REMARK  157  A    between atoms: _370  and  _373
REMARK  158  A    between atoms: _373  and  _374
REMARK  159  A    between atoms: _374  and  _375
REMARK  160  A    between atoms: _375  and  _376
REMARK  161  A    between atoms: _376  and  _377
REMARK  162  A    between atoms: _382  and  _383
REMARK  163  A    between atoms: _388  and  _390
REMARK  164  A    between atoms: _390  and  _391
REMARK  165  A    between atoms: _390  and  _393
REMARK  166  A    between atoms: _393  and  _394
REMARK  167  A    between atoms: _394  and  _395
REMARK  168  A    between atoms: _398  and  _400
REMARK  169  A    between atoms: _400  and  _401
REMARK  170  A    between atoms: _400  and  _403
REMARK  171  A    between atoms: _403  and  _404
REMARK  172  A    between atoms: _409  and  _411
REMARK  173  A    between atoms: _411  and  _412
REMARK  174  A    between atoms: _411  and  _414
REMARK  175  A    between atoms: _414  and  _415
REMARK  176  A    between atoms: _418  and  _420
REMARK  177  A    between atoms: _420  and  _421
REMARK  178  A    between atoms: _420  and  _423
REMARK  179  A    between atoms: _423  and  _424
REMARK  180  A    between atoms: _427  and  _429
REMARK  181  A    between atoms: _429  and  _430
REMARK  182  A    between atoms: _429  and  _432
REMARK  183  A    between atoms: _432  and  _433
REMARK  184  A    between atoms: _436  and  _438
REMARK  185  A    between atoms: _438  and  _439
REMARK  186  A    between atoms: _438  and  _441
REMARK  187  A    between atoms: _441  and  _442
REMARK  188  A    between atoms: _445  and  _447
REMARK  189  A    between atoms: _447  and  _448
REMARK  190  A    between atoms: _447  and  _450
REMARK  191  A    between atoms: _450  and  _451
REMARK  192  A    between atoms: _451  and  _452
REMARK  193  A    between atoms: _452  and  _453
REMARK  194  A    between atoms: _453  and  _454
REMARK  195  A    between atoms: _458  and  _460
REMARK  196  A    between atoms: _460  and  _461
REMARK  197  A    between atoms: _460  and  _463
REMARK  198  A    between atoms: _463  and  _464
REMARK  199  A    between atoms: _467  and  _469
REMARK  200  A    between atoms: _469  and  _470
REMARK  201  A    between atoms: _469  and  _472
REMARK  202  A    between atoms: _472  and  _473
REMARK  203  A    between atoms: _475  and  _477
REMARK  204  A    between atoms: _477  and  _478
REMARK  205  A    between atoms: _477  and  _480
REMARK  206  A    between atoms: _480  and  _481
REMARK  207  A    between atoms: _484  and  _486
REMARK  208  A    between atoms: _486  and  _487
REMARK  209  A    between atoms: _486  and  _489
REMARK  210  A    between atoms: _489  and  _490
REMARK  211  A    between atoms: _496  and  _498
REMARK  212  A    between atoms: _498  and  _499
REMARK  213  A    between atoms: _501  and  _503
REMARK  214  A    between atoms: _503  and  _504
REMARK  215  A    between atoms: _503  and  _506
REMARK  216  A    between atoms: _506  and  _507
REMARK                            x       y       z     vdW  Elec       q    Type
REMARK                         _______ _______ _______ _____ _____    ______ ____
ROOT
ATOM      1  CA  LYS A   2      12.245  16.085  18.098  0.00  0.00    +0.137 C 
ENDROOT
BRANCH   1   3
ATOM      2  C   VAL A   1      10.809  15.098  16.416  0.00  0.00    +0.238 C 
ATOM      3  N   LYS A   2      10.934  15.756  17.564  0.00  0.00    -0.298 N 
ATOM      4  H   LYS A   2      10.081  16.040  18.088  0.00  0.00    +0.150 HD
ATOM      5  O   VAL A   1      11.768  14.740  15.735  0.00  0.00    -0.274 OA
BRANCH   2   6
ATOM      6  CA  VAL A   1       9.386  14.840  15.946  0.00  0.00    +0.145 C 
BRANCH   6   7
ATOM      7  CB  VAL A   1       9.061  13.331  16.052  0.00  0.00    +0.025 C 
ATOM      8  CG2 VAL A   1       9.431  12.781  17.476  0.00  0.00    +0.002 C 
ATOM      9  CG1 VAL A   1       7.598  13.130  15.771  0.00  0.00    +0.002 C 
ENDBRANCH   6   7
BRANCH   6  10
ATOM     10  N   VAL A   1       9.186  15.315  14.570  0.00  0.00    -0.238 NA
ATOM     11  H   VAL A   1       8.858  14.655  13.836  0.00  0.00    +0.142 HD
ENDBRANCH   6  10
ENDBRANCH   2   6
ENDBRANCH   1   3
BRANCH   1  12
ATOM     12  C   LYS A   2      12.850  14.865  18.807  0.00  0.00    +0.227 C 
ATOM     13  O   LYS A   2      12.127  14.087  19.406  0.00  0.00    -0.286 OA
ENDBRANCH   1  12
BRANCH   1  14
ATOM     14  CB  LYS A   2      12.106  17.247  19.092  0.00  0.00    +0.028 C 
BRANCH  14  15
ATOM     15  CG  LYS A   2      13.376  17.644  19.820  0.00  0.00    -0.000 C 
BRANCH  15  16
ATOM     16  CD  LYS A   2      14.360  18.325  18.902  0.00  0.00    -0.024 C 
BRANCH  16  17
ATOM     17  CE  LYS A   2      15.645  18.729  19.631  0.00  0.00    -0.086 C 
BRANCH  17  18
ATOM     18  NZ  LYS A   2      16.449  19.571  18.667  0.00  0.00    +0.380 N 
ATOM     19  HZ1 LYS A   2      17.335  19.868  19.124  0.00  0.00    -0.089 HD
ATOM     20  HZ2 LYS A   2      15.897  20.411  18.398  0.00  0.00    -0.089 HD
ATOM     21  HZ3 LYS A   2      16.666  19.011  17.818  0.00  0.00    -0.089 HD
ENDBRANCH  17  18
ENDBRANCH  16  17
ENDBRANCH  15  16
ENDBRANCH  14  15
ENDBRANCH   1  14
TORSDOF 10
REMARK  Name = ../refined-set-2016/1nvr/1nvr_pocket.pdb
REMARK  216 active torsions:
REMARK  status: ('A' for Active; 'I' for Inactive)
REMARK    1  A    between atoms: _1  and  _3
REMARK    2  A    between atoms: _3  and  _4
REMARK    3  A    between atoms: _3  and  _6
REMARK    4  A    between atoms: _6  and  _7
REMARK    5  A    between atoms: _7  and  _8
REMARK    6  A    between atoms: _13  and  _15
REMARK    7  A    between atoms: _15  and  _16
REMARK    8  A    between atoms: _15  and  _18
REMARK    9  A    between atoms: _18  and  _19
REMARK   10  A    between atoms: _22  and  _24
REMARK   11  A    between atoms: _24  and  _25
REMARK   12  A    between atoms: _24  and  _27
REMARK   13  A    between atoms: _27  and  _28
REMARK   14  A    between atoms: _31  and  _33
REMARK   15  A    between atoms: _33  and  _34
REMARK   16  A    between atoms: _36  and  _38
REMARK   17  A    between atoms: _38  and  _39
REMARK   18  A    between atoms: _38  and  _41
REMARK   19  A    between atoms: _41  and  _42
REMARK   20  A    between atoms: _42  and  _43
REMARK   21  A    between atoms: _46  and  _48
REMARK   22  A    between atoms: _48  and  _49
REMARK   23  A    between atoms: _51  and  _53
REMARK   24  A    between atoms: _53  and  _54
REMARK   25  A    between atoms: _53  and  _56
REMARK   26  A    between atoms: _56  and  _57
REMARK   27  A    between atoms: _62  and  _63
REMARK   28  A    between atoms: _65  and  _67
REMARK   29  A    between atoms: _67  and  _68
REMARK   30  A    between atoms: _70  and  _72
REMARK   31  A    between atoms: _72  and  _73
REMARK   32  A    between atoms: _72  and  _75
REMARK   33  A    between atoms: _75  and  _76
REMARK   34  A    between atoms: _76  and  _77
REMARK   35  A    between atoms: _80  and  _82
REMARK   36  A    between atoms: _82  and  _83
REMARK   37  A    between atoms: _82  and  _85
REMARK   38  A    between atoms: _88  and  _90
REMARK   39  A    between atoms: _90  and  _91
REMARK   40  A    between atoms: _90  and  _93
REMARK   41  A    between atoms: _93  and  _94
REMARK   42  A    between atoms: _94  and  _95
REMARK   43  A    between atoms: _100  and  _102
REMARK   44  A    between atoms: _102  and  _103
REMARK   45  A    between atoms: _102  and  _105
REMARK   46  A    between atoms: _105  and  _106
REMARK   47  A    between atoms: _109  and  _111
REMARK   48  A    between atoms: _111  and  _112
REMARK   49  A    between atoms: _115  and  _117
REMARK   50  A    between atoms: _117  and  _118
REMARK   51  A    between atoms: _121  and  _123
REMARK   52  A    between atoms: _123  and  _124
REMARK   53  A    between atoms: _123  and  _126
REMARK   54  A    between atoms: _129  and  _131
REMARK   55  A    between atoms: _131  and  _132
REMARK   56  A    between atoms: _135  and  _137
REMARK   57  A    between atoms: _137  and  _138
REMARK   58  A    between atoms: _137  and  _140
REMARK   59  A    between atoms: _143  and  _145
REMARK   60  A    between atoms: _145  and  _146
REMARK   61  A    between atoms: _145  and  _148
REMARK   62  A    between atoms: _148  and  _149
REMARK   63  A    between atoms: _149  and  _150
REMARK   64  A    between atoms: _150  and  _151
REMARK   65  A    between atoms: _151  and  _152
REMARK   66  A    between atoms: _156  and  _158
REMARK   67  A    between atoms: _158  and  _159
REMARK   68  A    between atoms: _158  and  _161
REMARK   69  A    between atoms: _161  and  _162
REMARK   70  A    between atoms: _165  and  _167
REMARK   71  A    between atoms: _167  and  _168
REMARK   72  A    between atoms: _167  and  _170
REMARK   73  A    between atoms: _173  and  _175
REMARK   74  A    between atoms: _175  and  _176
REMARK   75  A    between atoms: _175  and  _178
REMARK   76  A    between atoms: _178  and  _179
REMARK   77  A    between atoms: _179  and  _180
REMARK   78  A    between atoms: _183  and  _185
REMARK   79  A    between atoms: _185  and  _186
REMARK   80  A    between atoms: _185  and  _188
REMARK   81  A    between atoms: _188  and  _189
REMARK   82  A    between atoms: _194  and  _196
REMARK   83  A    between atoms: _196  and  _197
REMARK   84  A    between atoms: _196  and  _199
REMARK   85  A    between atoms: _202  and  _204
REMARK   86  A    between atoms: _204  and  _205
REMARK   87  A    between atoms: _204  and  _207
REMARK   88  A    between atoms: _207  and  _208
REMARK   89  A    between atoms: _208  and  _209
REMARK   90  A    between atoms: _209  and  _210
REMARK   91  A    between atoms: _210  and  _211
REMARK   92  A    between atoms: _215  and  _217
REMARK   93  A    between atoms: _217  and  _218
REMARK   94  A    between atoms: _217  and  _220
REMARK   95  A    between atoms: _220  and  _221
REMARK   96  A    between atoms: _226  and  _227
REMARK   97  A    between atoms: _229  and  _231
REMARK   98  A    between atoms: _231  and  _232
REMARK   99  A    between atoms: _231  and  _234
REMARK  100  A    between atoms: _234  and  _235
REMARK  101  A    between atoms: _238  and  _240
REMARK  102  A    between atoms: _240  and  _241
REMARK  103  A    between atoms: _240  and  _243
REMARK  104  A    between atoms: _243  and  _244
REMARK  105  A    between atoms: _250  and  _252
REMARK  106  A    between atoms: _252  and  _253
REMARK  107  A    between atoms: _252  and  _255
REMARK  108  A    between atoms: _255  and  _256
REMARK  109  A    between atoms: _259  and  _261
REMARK  110  A    between atoms: _261  and  _262
REMARK  111  A    between atoms: _261  and  _264
REMARK  112  A    between atoms: _264  and  _265
REMARK  113  A    between atoms: _265  and  _266
REMARK  114  A    between atoms: _269  and  _271
REMARK  115  A    between atoms: _271  and  _272
REMARK  116  A    between atoms: _271  and  _274
REMARK  117  A    between atoms: _274  and  _275
REMARK  118  A    between atoms: _280  and  _281
REMARK  119  A    between atoms: _283  and  _285
REMARK  120  A    between atoms: _285  and  _286
REMARK  121  A    between atoms: _285  and  _288
REMARK  122  A    between atoms: _290  and  _292
REMARK  123  A    between atoms: _292  and  _293
REMARK  124  A    between atoms: _292  and  _295
REMARK  125  A    between atoms: _295  and  _296
REMARK  126  A    between atoms: _298  and  _300
REMARK  127  A    between atoms: _300  and  _301
REMARK  128  A    between atoms: _303  and  _305
REMARK  129  A    between atoms: _305  and  _306
REMARK  130  A    between atoms: _308  and  _310
REMARK  131  A    between atoms: _310  and  _311
REMARK  132  A    between atoms: _310  and  _313
REMARK  133  A    between atoms: _313  and  _314
REMARK  134  A    between atoms: _314  and  _315
REMARK  135  A    between atoms: _318  and  _320
REMARK  136  A    between atoms: _320  and  _321
REMARK  137  A    between atoms: _320  and  _323
REMARK  138  A    between atoms: _323  and  _324
REMARK  139  A    between atoms: _327  and  _329
REMARK  140  A    between atoms: _329  and  _330
REMARK  141  A    between atoms: _329  and  _332
REMARK  142  A    between atoms: _332  and  _333
REMARK  143  A    between atoms: _339  and  _341
REMARK  144  A    between atoms: _341  and  _342
REMARK  145  A    between atoms: _341  and  _344
REMARK  146  A    between atoms: _344  and  _345
REMARK  147  A    between atoms: _348  and  _350
REMARK  148  A    between atoms: _350  and  _351
REMARK  149  A    between atoms: _350  and  _353
REMARK  150  A    between atoms: _353  and  _354
REMARK  151  A    between atoms: _359  and  _361
REMARK  152  A    between atoms: _361  and  _362
REMARK  153  A    between atoms: _361  and  _364
REMARK  154  A    between atoms: _364  and  _365
REMARK  155  A    between atoms: _368  and  _370
REMARK  156  A    between atoms: _370  and  _371
REMARK  157  A    between atoms: _370  and  _373
REMARK  158  A    between atoms: _373  and  _374
REMARK  159  A    between atoms: _374  and  _375
REMARK  160  A    between atoms: _375  and  _376
REMARK  161  A    between atoms: _376  and  _377
REMARK  162  A    between atoms: _382  and  _383
REMARK  163  A    between atoms: _388  and  _390
REMARK  164  A    between atoms: _390  and  _391
REMARK  165  A    between atoms: _390  and  _393
REMARK  166  A    between atoms: _393  and  _394
REMARK  167  A    between atoms: _394  and  _395
REMARK  168  A    between atoms: _398  and  _400
REMARK  169  A    between atoms: _400  and  _401
REMARK  170  A    between atoms: _400  and  _403
REMARK  171  A    between atoms: _403  and  _404
REMARK  172  A    between atoms: _409  and  _411
REMARK  173  A    between atoms: _411  and  _412
REMARK  174  A    between atoms: _411  and  _414
REMARK  175  A    between atoms: _414  and  _415
REMARK  176  A    between atoms: _418  and  _420
REMARK  177  A    between atoms: _420  and  _421
REMARK  178  A    between atoms: _420  and  _423
REMARK  179  A    between atoms: _423  and  _424
REMARK  180  A    between atoms: _427  and  _429
REMARK  181  A    between atoms: _429  and  _430
REMARK  182  A    between atoms: _429  and  _432
REMARK  183  A    between atoms: _432  and  _433
REMARK  184  A    between atoms: _436  and  _438
REMARK  185  A    between atoms: _438  and  _439
REMARK  186  A    between atoms: _438  and  _441
REMARK  187  A    between atoms: _441  and  _442
REMARK  188  A    between atoms: _445  and  _447
REMARK  189  A    between atoms: _447  and  _448
REMARK  190  A    between atoms: _447  and  _450
REMARK  191  A    between atoms: _450  and  _451
REMARK  192  A    between atoms: _451  and  _452
REMARK  193  A    between atoms: _452  and  _453
REMARK  194  A    between atoms: _453  and  _454
REMARK  195  A    between atoms: _458  and  _460
REMARK  196  A    between atoms: _460  and  _461
REMARK  197  A    between atoms: _460  and  _463
REMARK  198  A    between atoms: _463  and  _464
REMARK  199  A    between atoms: _467  and  _469
REMARK  200  A    between atoms: _469  and  _470
REMARK  201  A    between atoms: _469  and  _472
REMARK  202  A    between atoms: _472  and  _473
REMARK  203  A    between atoms: _475  and  _477
REMARK  204  A    between atoms: _477  and  _478
REMARK  205  A    between atoms: _477  and  _480
REMARK  206  A    between atoms: _480  and  _481
REMARK  207  A    between atoms: _484  and  _486
REMARK  208  A    between atoms: _486  and  _487
REMARK  209  A    between atoms: _486  and  _489
REMARK  210  A    between atoms: _489  and  _490
REMARK  211  A    between atoms: _496  and  _498
REMARK  212  A    between atoms: _498  and  _499
REMARK  213  A    between atoms: _501  and  _503
REMARK  214  A    between atoms: _503  and  _504
REMARK  215  A    between atoms: _503  and  _506
REMARK  216  A    between atoms: _506  and  _507
REMARK                            x       y       z     vdW  Elec       q    Type
REMARK                         _______ _______ _______ _____ _____    ______ ____
ROOT
ATOM      1  CG  TYR A   1      13.843  14.812  23.882  0.00  0.00    -0.020 A 
ATOM      2  CD2 TYR A   1      12.627  14.193  24.156  0.00  0.00    -0.001 A 
ATOM      3  CE2 TYR A   1      11.410  14.862  23.988  0.00  0.00    +0.036 A 
ATOM      4  CZ  TYR A   1      11.398  16.169  23.542  0.00  0.00    +0.134 A 
ATOM      5  CE1 TYR A   1      12.587  16.825  23.256  0.00  0.00    +0.036 A 
ATOM      6  CD1 TYR A   1      13.816  16.139  23.427  0.00  0.00    -0.001 A 
ENDROOT
BRANCH   4   7
ATOM      7  OH  TYR A   1      10.196  16.810  23.390  0.00  0.00    -0.506 OA
ATOM      8  HH  TYR A   1       9.461  16.194  23.638  0.00  0.00    +0.292 HD
ENDBRANCH   4   7
BRANCH   1   9
ATOM      9  CB  TYR A   1      15.151  14.086  24.092  0.00  0.00    +0.051 C 
BRANCH   9  10
ATOM     10  CA  TYR A   1      16.121  14.218  22.913  0.00  0.00    +0.137 C 
BRANCH  10  11
ATOM     11  N   TYR A   1      15.497  13.676  21.704  0.00  0.00    -0.239 NA
ATOM     12  H   TYR A   1      14.896  12.829  21.767  0.00  0.00    +0.142 HD
ENDBRANCH  10  11
BRANCH  10  13
ATOM     13  C   TYR A   1      17.456  13.574  23.254  0.00  0.00    +0.224 C 
ATOM     14  O   TYR A   1      18.321  14.197  23.880  0.00  0.00    -0.287 OA
ENDBRANCH  10  13
ENDBRANCH   9  10
ENDBRANCH   1   9
TORSDOF 5
REMARK  Name = ../refined-set-2016/1nvr/1nvr_pocket.pdb
REMARK  216 active torsions:
REMARK  status: ('A' for Active; 'I' for Inactive)
REMARK    1  A    between atoms: _1  and  _3
REMARK    2  A    between atoms: _3  and  _4
REMARK    3  A    between atoms: _3  and  _6
REMARK    4  A    between atoms: _6  and  _7
REMARK    5  A    between atoms: _7  and  _8
REMARK    6  A    between atoms: _13  and  _15
REMARK    7  A    between atoms: _15  and  _16
REMARK    8  A    between atoms: _15  and  _18
REMARK    9  A    between atoms: _18  and  _19
REMARK   10  A    between atoms: _22  and  _24
REMARK   11  A    between atoms: _24  and  _25
REMARK   12  A    between atoms: _24  and  _27
REMARK   13  A    between atoms: _27  and  _28
REMARK   14  A    between atoms: _31  and  _33
REMARK   15  A    between atoms: _33  and  _34
REMARK   16  A    between atoms: _36  and  _38
REMARK   17  A    between atoms: _38  and  _39
REMARK   18  A    between atoms: _38  and  _41
REMARK   19  A    between atoms: _41  and  _42
REMARK   20  A    between atoms: _42  and  _43
REMARK   21  A    between atoms: _46  and  _48
REMARK   22  A    between atoms: _48  and  _49
REMARK   23  A    between atoms: _51  and  _53
REMARK   24  A    between atoms: _53  and  _54
REMARK   25  A    between atoms: _53  and  _56
REMARK   26  A    between atoms: _56  and  _57
REMARK   27  A    between atoms: _62  and  _63
REMARK   28  A    between atoms: _65  and  _67
REMARK   29  A    between atoms: _67  and  _68
REMARK   30  A    between atoms: _70  and  _72
REMARK   31  A    between atoms: _72  and  _73
REMARK   32  A    between atoms: _72  and  _75
REMARK   33  A    between atoms: _75  and  _76
REMARK   34  A    between atoms: _76  and  _77
REMARK   35  A    between atoms: _80  and  _82
REMARK   36  A    between atoms: _82  and  _83
REMARK   37  A    between atoms: _82  and  _85
REMARK   38  A    between atoms: _88  and  _90
REMARK   39  A    between atoms: _90  and  _91
REMARK   40  A    between atoms: _90  and  _93
REMARK   41  A    between atoms: _93  and  _94
REMARK   42  A    between atoms: _94  and  _95
REMARK   43  A    between atoms: _100  and  _102
REMARK   44  A    between atoms: _102  and  _103
REMARK   45  A    between atoms: _102  and  _105
REMARK   46  A    between atoms: _105  and  _106
REMARK   47  A    between atoms: _109  and  _111
REMARK   48  A    between atoms: _111  and  _112
REMARK   49  A    between atoms: _115  and  _117
REMARK   50  A    between atoms: _117  and  _118
REMARK   51  A    between atoms: _121  and  _123
REMARK   52  A    between atoms: _123  and  _124
REMARK   53  A    between atoms: _123  and  _126
REMARK   54  A    between atoms: _129  and  _131
REMARK   55  A    between atoms: _131  and  _132
REMARK   56  A    between atoms: _135  and  _137
REMARK   57  A    between atoms: _137  and  _138
REMARK   58  A    between atoms: _137  and  _140
REMARK   59  A    between atoms: _143  and  _145
REMARK   60  A    between atoms: _145  and  _146
REMARK   61  A    between atoms: _145  and  _148
REMARK   62  A    between atoms: _148  and  _149
REMARK   63  A    between atoms: _149  and  _150
REMARK   64  A    between atoms: _150  and  _151
REMARK   65  A    between atoms: _151  and  _152
REMARK   66  A    between atoms: _156  and  _158
REMARK   67  A    between atoms: _158  and  _159
REMARK   68  A    between atoms: _158  and  _161
REMARK   69  A    between atoms: _161  and  _162
REMARK   70  A    between atoms: _165  and  _167
REMARK   71  A    between atoms: _167  and  _168
REMARK   72  A    between atoms: _167  and  _170
REMARK   73  A    between atoms: _173  and  _175
REMARK   74  A    between atoms: _175  and  _176
REMARK   75  A    between atoms: _175  and  _178
REMARK   76  A    between atoms: _178  and  _179
REMARK   77  A    between atoms: _179  and  _180
REMARK   78  A    between atoms: _183  and  _185
REMARK   79  A    between atoms: _185  and  _186
REMARK   80  A    between atoms: _185  and  _188
REMARK   81  A    between atoms: _188  and  _189
REMARK   82  A    between atoms: _194  and  _196
REMARK   83  A    between atoms: _196  and  _197
REMARK   84  A    between atoms: _196  and  _199
REMARK   85  A    between atoms: _202  and  _204
REMARK   86  A    between atoms: _204  and  _205
REMARK   87  A    between atoms: _204  and  _207
REMARK   88  A    between atoms: _207  and  _208
REMARK   89  A    between atoms: _208  and  _209
REMARK   90  A    between atoms: _209  and  _210
REMARK   91  A    between atoms: _210  and  _211
REMARK   92  A    between atoms: _215  and  _217
REMARK   93  A    between atoms: _217  and  _218
REMARK   94  A    between atoms: _217  and  _220
REMARK   95  A    between atoms: _220  and  _221
REMARK   96  A    between atoms: _226  and  _227
REMARK   97  A    between atoms: _229  and  _231
REMARK   98  A    between atoms: _231  and  _232
REMARK   99  A    between atoms: _231  and  _234
REMARK  100  A    between atoms: _234  and  _235
REMARK  101  A    between atoms: _238  and  _240
REMARK  102  A    between atoms: _240  and  _241
REMARK  103  A    between atoms: _240  and  _243
REMARK  104  A    between atoms: _243  and  _244
REMARK  105  A    between atoms: _250  and  _252
REMARK  106  A    between atoms: _252  and  _253
REMARK  107  A    between atoms: _252  and  _255
REMARK  108  A    between atoms: _255  and  _256
REMARK  109  A    between atoms: _259  and  _261
REMARK  110  A    between atoms: _261  and  _262
REMARK  111  A    between atoms: _261  and  _264
REMARK  112  A    between atoms: _264  and  _265
REMARK  113  A    between atoms: _265  and  _266
REMARK  114  A    between atoms: _269  and  _271
REMARK  115  A    between atoms: _271  and  _272
REMARK  116  A    between atoms: _271  and  _274
REMARK  117  A    between atoms: _274  and  _275
REMARK  118  A    between atoms: _280  and  _281
REMARK  119  A    between atoms: _283  and  _285
REMARK  120  A    between atoms: _285  and  _286
REMARK  121  A    between atoms: _285  and  _288
REMARK  122  A    between atoms: _290  and  _292
REMARK  123  A    between atoms: _292  and  _293
REMARK  124  A    between atoms: _292  and  _295
REMARK  125  A    between atoms: _295  and  _296
REMARK  126  A    between atoms: _298  and  _300
REMARK  127  A    between atoms: _300  and  _301
REMARK  128  A    between atoms: _303  and  _305
REMARK  129  A    between atoms: _305  and  _306
REMARK  130  A    between atoms: _308  and  _310
REMARK  131  A    between atoms: _310  and  _311
REMARK  132  A    between atoms: _310  and  _313
REMARK  133  A    between atoms: _313  and  _314
REMARK  134  A    between atoms: _314  and  _315
REMARK  135  A    between atoms: _318  and  _320
REMARK  136  A    between atoms: _320  and  _321
REMARK  137  A    between atoms: _320  and  _323
REMARK  138  A    between atoms: _323  and  _324
REMARK  139  A    between atoms: _327  and  _329
REMARK  140  A    between atoms: _329  and  _330
REMARK  141  A    between atoms: _329  and  _332
REMARK  142  A    between atoms: _332  and  _333
REMARK  143  A    between atoms: _339  and  _341
REMARK  144  A    between atoms: _341  and  _342
REMARK  145  A    between atoms: _341  and  _344
REMARK  146  A    between atoms: _344  and  _345
REMARK  147  A    between atoms: _348  and  _350
REMARK  148  A    between atoms: _350  and  _351
REMARK  149  A    between atoms: _350  and  _353
REMARK  150  A    between atoms: _353  and  _354
REMARK  151  A    between atoms: _359  and  _361
REMARK  152  A    between atoms: _361  and  _362
REMARK  153  A    between atoms: _361  and  _364
REMARK  154  A    between atoms: _364  and  _365
REMARK  155  A    between atoms: _368  and  _370
REMARK  156  A    between atoms: _370  and  _371
REMARK  157  A    between atoms: _370  and  _373
REMARK  158  A    between atoms: _373  and  _374
REMARK  159  A    between atoms: _374  and  _375
REMARK  160  A    between atoms: _375  and  _376
REMARK  161  A    between atoms: _376  and  _377
REMARK  162  A    between atoms: _382  and  _383
REMARK  163  A    between atoms: _388  and  _390
REMARK  164  A    between atoms: _390  and  _391
REMARK  165  A    between atoms: _390  and  _393
REMARK  166  A    between atoms: _393  and  _394
REMARK  167  A    between atoms: _394  and  _395
REMARK  168  A    between atoms: _398  and  _400
REMARK  169  A    between atoms: _400  and  _401
REMARK  170  A    between atoms: _400  and  _403
REMARK  171  A    between atoms: _403  and  _404
REMARK  172  A    between atoms: _409  and  _411
REMARK  173  A    between atoms: _411  and  _412
REMARK  174  A    between atoms: _411  and  _414
REMARK  175  A    between atoms: _414  and  _415
REMARK  176  A    between atoms: _418  and  _420
REMARK  177  A    between atoms: _420  and  _421
REMARK  178  A    between atoms: _420  and  _423
REMARK  179  A    between atoms: _423  and  _424
REMARK  180  A    between atoms: _427  and  _429
REMARK  181  A    between atoms: _429  and  _430
REMARK  182  A    between atoms: _429  and  _432
REMARK  183  A    between atoms: _432  and  _433
REMARK  184  A    between atoms: _436  and  _438
REMARK  185  A    between atoms: _438  and  _439
REMARK  186  A    between atoms: _438  and  _441
REMARK  187  A    between atoms: _441  and  _442
REMARK  188  A    between atoms: _445  and  _447
REMARK  189  A    between atoms: _447  and  _448
REMARK  190  A    between atoms: _447  and  _450
REMARK  191  A    between atoms: _450  and  _451
REMARK  192  A    between atoms: _451  and  _452
REMARK  193  A    between atoms: _452  and  _453
REMARK  194  A    between atoms: _453  and  _454
REMARK  195  A    between atoms: _458  and  _460
REMARK  196  A    between atoms: _460  and  _461
REMARK  197  A    between atoms: _460  and  _463
REMARK  198  A    between atoms: _463  and  _464
REMARK  199  A    between atoms: _467  and  _469
REMARK  200  A    between atoms: _469  and  _470
REMARK  201  A    between atoms: _469  and  _472
REMARK  202  A    between atoms: _472  and  _473
REMARK  203  A    between atoms: _475  and  _477
REMARK  204  A    between atoms: _477  and  _478
REMARK  205  A    between atoms: _477  and  _480
REMARK  206  A    between atoms: _480  and  _481
REMARK  207  A    between atoms: _484  and  _486
REMARK  208  A    between atoms: _486  and  _487
REMARK  209  A    between atoms: _486  and  _489
REMARK  210  A    between atoms: _489  and  _490
REMARK  211  A    between atoms: _496  and  _498
REMARK  212  A    between atoms: _498  and  _499
REMARK  213  A    between atoms: _501  and  _503
REMARK  214  A    between atoms: _503  and  _504
REMARK  215  A    between atoms: _503  and  _506
REMARK  216  A    between atoms: _506  and  _507
REMARK                            x       y       z     vdW  Elec       q    Type
REMARK                         _______ _______ _______ _____ _____    ______ ____
ROOT
ATOM      1  C   CYS A   6       1.220  12.847  20.604  0.00  0.00    +0.242 C 
ATOM      2  N   SER A   7       0.573  13.505  21.567  0.00  0.00    -0.295 N 
ATOM      3  H   SER A   7       0.907  14.435  21.890  0.00  0.00    +0.150 HD
ATOM      4  O   CYS A   6       0.796  11.797  20.123  0.00  0.00    -0.273 OA
ENDROOT
BRANCH   1   5
ATOM      5  CA  CYS A   6       2.516  13.466  20.107  0.00  0.00    +0.160 C 
BRANCH   5   8
ATOM      6  C   TYR A   5       4.345  13.560  21.736  0.00  0.00    +0.241 C 
ATOM      7  O   TYR A   5       4.124  14.743  22.022  0.00  0.00    -0.273 OA
ATOM      8  N   CYS A   6       3.622  12.868  20.859  0.00  0.00    -0.296 N 
ATOM      9  H   CYS A   6       3.850  11.866  20.702  0.00  0.00    +0.150 HD
BRANCH   6  10
ATOM     10  CA  TYR A   5       5.461  12.802  22.418  0.00  0.00    +0.153 C 
BRANCH  10  12
ATOM     11  C   GLU A   4       7.594  13.396  21.407  0.00  0.00    +0.241 C 
ATOM     12  N   TYR A   5       6.727  13.530  22.395  0.00  0.00    -0.297 N 
ATOM     13  H   TYR A   5       6.953  14.173  23.180  0.00  0.00    +0.150 HD
ATOM     14  O   GLU A   4       7.362  12.660  20.435  0.00  0.00    -0.273 OA
BRANCH  11  15
ATOM     15  CA  GLU A   4       8.916  14.215  21.486  0.00  0.00    +0.149 C 
BRANCH  15  18
ATOM     16  C   LEU A   3      10.290  12.234  21.853  0.00  0.00    +0.241 C 
ATOM     17  O   LEU A   3       9.576  11.841  22.800  0.00  0.00    -0.273 OA
ATOM     18  N   GLU A   4      10.057  13.358  21.162  0.00  0.00    -0.297 N 
ATOM     19  H   GLU A   4      10.695  13.625  20.385  0.00  0.00    +0.150 HD
BRANCH  16  20
ATOM     20  CA  LEU A   3      11.465  11.413  21.382  0.00  0.00    +0.149 C 
BRANCH  20  22
ATOM     21  C   PHE A   2      13.373  10.552  22.693  0.00  0.00    +0.241 C 
ATOM     22  N   LEU A   3      12.071  10.583  22.431  0.00  0.00    -0.297 N 
ATOM     23  H   LEU A   3      11.443   9.983  23.003  0.00  0.00    +0.150 HD
ATOM     24  O   PHE A   2      14.216  11.275  22.146  0.00  0.00    -0.273 OA
BRANCH  21  25
ATOM     25  CA  PHE A   2      13.788   9.549  23.773  0.00  0.00    +0.153 C 
BRANCH  25  27
ATOM     26  C   LEU A   1      14.419   7.457  22.635  0.00  0.00    +0.238 C 
ATOM     27  N   PHE A   2      14.761   8.629  23.171  0.00  0.00    -0.297 N 
ATOM     28  H   PHE A   2      15.764   8.904  23.162  0.00  0.00    +0.150 HD
ATOM     29  O   LEU A   1      13.268   7.045  22.588  0.00  0.00    -0.274 OA
BRANCH  26  30
ATOM     30  CA  LEU A   1      15.559   6.598  22.049  0.00  0.00    +0.145 C 
BRANCH  30  31
ATOM     31  N   LEU A   1      15.543   5.287  22.689  0.00  0.00    -0.238 NA
ATOM     32  H   LEU A   1      14.850   4.571  22.392  0.00  0.00    +0.142 HD
ENDBRANCH  30  31
BRANCH  30  33
ATOM     33  CB  LEU A   1      15.365   6.438  20.536  0.00  0.00    +0.026 C 
BRANCH  33  34
ATOM     34  CG  LEU A   1      16.325   5.479  19.808  0.00  0.00    +0.002 C 
ATOM     35  CD2 LEU A   1      17.727   6.005  19.828  0.00  0.00    +0.000 C 
ATOM     36  CD1 LEU A   1      15.828   5.320  18.353  0.00  0.00    +0.000 C 
ENDBRANCH  33  34
ENDBRANCH  30  33
ENDBRANCH  26  30
ENDBRANCH  25  27
BRANCH  25  37
ATOM     37  CB  PHE A   2      14.405  10.269  24.991  0.00  0.00    +0.055 C 
BRANCH  37  38
ATOM     38  CG  PHE A   2      14.677   9.346  26.176  0.00  0.00    -0.020 A 
ATOM     39  CD2 PHE A   2      13.839   9.351  27.299  0.00  0.00    -0.004 A 
ATOM     40  CE2 PHE A   2      14.089   8.477  28.410  0.00  0.00    -0.000 A 
ATOM     41  CZ  PHE A   2      15.189   7.600  28.371  0.00  0.00    -0.000 A 
ATOM     42  CE1 PHE A   2      16.022   7.596  27.248  0.00  0.00    -0.000 A 
ATOM     43  CD1 PHE A   2      15.758   8.473  26.157  0.00  0.00    -0.004 A 
ENDBRANCH  37  38
ENDBRANCH  25  37
ENDBRANCH  21  25
ENDBRANCH  20  22
BRANCH  20  44
ATOM     44  CB  LEU A   3      10.961  10.492  20.268  0.00  0.00    +0.029 C 
BRANCH  44  45
ATOM     45  CG  LEU A   3      12.118   9.701  19.624  0.00  0.00    +0.002 C 
ATOM     46  CD2 LEU A   3      11.618   8.356  19.093  0.00  0.00    +0.000 C 
ATOM     47  CD1 LEU A   3      12.776  10.539  18.527  0.00  0.00    +0.000 C 
ENDBRANCH  44  45
ENDBRANCH  20  44
ENDBRANCH  16  20
ENDBRANCH  15  18
BRANCH  15  48
ATOM     48  CB  GLU A   4       8.893  15.381  20.478  0.00  0.00    +0.041 C 
BRANCH  48  49
ATOM     49  CG  GLU A   4       7.629  16.222  20.496  0.00  0.00    +0.116 C 
BRANCH  49  50
ATOM     50  CD  GLU A   4       7.674  17.305  19.415  0.00  0.00    +0.365 C 
ATOM     51  OE2 GLU A   4       6.820  18.216  19.434  0.00  0.00    -0.246 OA
ATOM     52  OE1 GLU A   4       8.558  17.239  18.545  0.00  0.00    -0.246 OA
ENDBRANCH  49  50
ENDBRANCH  48  49
ENDBRANCH  15  48
ENDBRANCH  11  15
ENDBRANCH  10  12
BRANCH  10  53
ATOM     53  CB  TYR A   5       5.034  12.521  23.877  0.00  0.00    +0.055 C 
BRANCH  53  54
ATOM     54  CG  TYR A   5       3.652  11.916  24.051  0.00  0.00    -0.020 A 
ATOM     55  CD2 TYR A   5       2.755  12.433  25.016  0.00  0.00    -0.001 A 
ATOM     56  CE2 TYR A   5       1.517  11.864  25.218  0.00  0.00    +0.036 A 
ATOM     57  CZ  TYR A   5       1.144  10.755  24.442  0.00  0.00    +0.134 A 
ATOM     58  CE1 TYR A   5       1.997  10.217  23.493  0.00  0.00    +0.036 A 
ATOM     59  CD1 TYR A   5       3.244  10.796  23.296  0.00  0.00    -0.001 A 
BRANCH  57  60
ATOM     60  OH  TYR A   5      -0.113  10.212  24.578  0.00  0.00    -0.506 OA
ATOM     61  HH  TYR A   5      -0.208   9.443  23.961  0.00  0.00    +0.292 HD
ENDBRANCH  57  60
ENDBRANCH  53  54
ENDBRANCH  10  53
ENDBRANCH   6  10
ENDBRANCH   5   8
BRANCH   5  62
ATOM     62  CB  CYS A   6       2.757  13.200  18.608  0.00  0.00    +0.098 C 
ATOM     63  SG  CYS A   6       4.400  13.777  18.089  0.00  0.00    -0.080 S 
ENDBRANCH   5  62
ENDBRANCH   1   5
BRANCH   2  64
ATOM     64  CA  SER A   7      -0.618  12.892  22.161  0.00  0.00    +0.178 C 
BRANCH  64  65
ATOM     65  C   SER A   7      -1.819  12.737  21.263  0.00  0.00    +0.243 C 
ATOM     66  O   SER A   7      -2.716  11.936  21.569  0.00  0.00    -0.273 OA
ATOM     67  N   GLY A   8      -1.841  13.458  20.138  0.00  0.00    -0.295 N 
ATOM     68  H   GLY A   8      -1.064  14.111  19.912  0.00  0.00    +0.150 HD
BRANCH  67  69
ATOM     69  CA  GLY A   8      -2.973  13.312  19.234  0.00  0.00    +0.176 C 
BRANCH  69  70
ATOM     70  C   GLY A   8      -2.955  12.051  18.377  0.00  0.00    +0.243 C 
ATOM     71  N   GLY A   9      -1.863  11.282  18.404  0.00  0.00    -0.295 N 
ATOM     72  H   GLY A   9      -1.035  11.564  18.967  0.00  0.00    +0.150 HD
ATOM     73  O   GLY A   8      -3.933  11.797  17.659  0.00  0.00    -0.273 OA
BRANCH  71  74
ATOM     74  CA  GLY A   9      -1.845  10.052  17.641  0.00  0.00    +0.176 C 
BRANCH  74  75
ATOM     75  C   GLY A   9      -1.626  10.224  16.146  0.00  0.00    +0.243 C 
ATOM     76  O   GLY A   9      -1.115  11.253  15.709  0.00  0.00    -0.273 OA
ATOM     77  N   GLU A  10      -1.993   9.203  15.373  0.00  0.00    -0.297 N 
ATOM     78  H   GLU A  10      -2.444   8.375  15.812  0.00  0.00    +0.150 HD
BRANCH  77  79
ATOM     79  CA  GLU A  10      -1.782   9.211  13.934  0.00  0.00    +0.149 C 
BRANCH  79  80
ATOM     80  C   GLU A  10      -2.766  10.043  13.156  0.00  0.00    +0.241 C 
ATOM     81  O   GLU A  10      -3.965  10.018  13.435  0.00  0.00    -0.273 OA
ATOM     82  N   LEU A  11      -2.266  10.722  12.119  0.00  0.00    -0.297 N 
ATOM     83  H   LEU A  11      -1.241  10.700  11.943  0.00  0.00    +0.150 HD
BRANCH  82  84
ATOM     84  CA  LEU A  11      -3.128  11.495  11.227  0.00  0.00    +0.149 C 
BRANCH  84  85
ATOM     85  C   LEU A  11      -4.095  10.496  10.599  0.00  0.00    +0.241 C 
ATOM     86  N   PHE A  12      -3.619   9.260  10.412  0.00  0.00    -0.297 N 
ATOM     87  H   PHE A  12      -2.644   9.047  10.705  0.00  0.00    +0.150 HD
ATOM     88  O   LEU A  11      -5.250  10.827  10.310  0.00  0.00    -0.273 OA
BRANCH  86  89
ATOM     89  CA  PHE A  12      -4.427   8.192   9.806  0.00  0.00    +0.153 C 
BRANCH  89  90
ATOM     90  C   PHE A  12      -5.799   8.050  10.506  0.00  0.00    +0.241 C 
ATOM     91  N   ASP A  13      -5.808   8.174  11.837  0.00  0.00    -0.298 N 
ATOM     92  H   ASP A  13      -4.916   8.354  12.340  0.00  0.00    +0.150 HD
ATOM     93  O   PHE A  12      -6.824   7.828   9.828  0.00  0.00    -0.273 OA
BRANCH  91  94
ATOM     94  CA  ASP A  13      -7.061   8.060  12.602  0.00  0.00    +0.148 C 
BRANCH  94  95
ATOM     95  C   ASP A  13      -8.043   9.241  12.500  0.00  0.00    +0.227 C 
ATOM     96  O   ASP A  13      -9.155   9.149  13.026  0.00  0.00    -0.286 OA
ENDBRANCH  94  95
BRANCH  94  97
ATOM     97  CB  ASP A  13      -6.778   7.709  14.081  0.00  0.00    +0.142 C 
BRANCH  97  98
ATOM     98  CG  ASP A  13      -6.158   6.321  14.227  0.00  0.00    +0.367 C 
ATOM     99  OD2 ASP A  13      -5.244   6.127  15.062  0.00  0.00    -0.246 OA
ATOM    100  OD1 ASP A  13      -6.587   5.390  13.483  0.00  0.00    -0.246 OA
ENDBRANCH  97  98
ENDBRANCH  94  97
ENDBRANCH  91  94
ENDBRANCH  89  90
BRANCH  89 101
ATOM    101  CB  PHE A  12      -3.693   6.846   9.912  0.00  0.00    +0.055 C 
BRANCH 101 102
ATOM    102  CG  PHE A  12      -4.477   5.672   9.320  0.00  0.00    -0.020 A 
ATOM    103  CD2 PHE A  12      -5.338   4.912  10.115  0.00  0.00    -0.004 A 
ATOM    104  CE2 PHE A  12      -6.074   3.840   9.567  0.00  0.00    -0.000 A 
ATOM    105  CZ  PHE A  12      -5.945   3.526   8.193  0.00  0.00    -0.000 A 
ATOM    106  CE1 PHE A  12      -5.090   4.281   7.387  0.00  0.00    -0.000 A 
ATOM    107  CD1 PHE A  12      -4.357   5.355   7.975  0.00  0.00    -0.004 A 
ENDBRANCH 101 102
ENDBRANCH  89 101
ENDBRANCH  86  89
ENDBRANCH  84  85
BRANCH  84 108
ATOM    108  CB  LEU A  11      -2.280  12.138  10.127  0.00  0.00    +0.029 C 
BRANCH 108 109
ATOM    109  CG  LEU A  11      -3.061  12.812   8.977  0.00  0.00    +0.002 C 
ATOM    110  CD2 LEU A  11      -3.846  13.957   9.544  0.00  0.00    +0.000 C 
ATOM    111  CD1 LEU A  11      -2.068  13.250   7.823  0.00  0.00    +0.000 C 
ENDBRANCH 108 109
ENDBRANCH  84 108
ENDBRANCH  82  84
ENDBRANCH  79  80
BRANCH  79 112
ATOM    112  CB  GLU A  10      -1.895   7.785  13.375  0.00  0.00    +0.041 C 
BRANCH 112 113
ATOM    113  CG  GLU A  10      -0.897   6.753  13.927  0.00  0.00    +0.116 C 
BRANCH 113 114
ATOM    114  CD  GLU A  10      -1.141   5.380  13.309  0.00  0.00    +0.365 C 
ATOM    115  OE2 GLU A  10      -0.461   4.393  13.677  0.00  0.00    -0.246 OA
ATOM    116  OE1 GLU A  10      -2.021   5.293  12.429  0.00  0.00    -0.246 OA
ENDBRANCH 113 114
ENDBRANCH 112 113
ENDBRANCH  79 112
ENDBRANCH  77  79
ENDBRANCH  74  75
ENDBRANCH  71  74
ENDBRANCH  69  70
ENDBRANCH  67  69
ENDBRANCH  64  65
BRANCH  64 117
ATOM    117  CB  SER A   7      -1.022  13.611  23.472  0.00  0.00    +0.166 C 
BRANCH 117 118
ATOM    118  OG  SER A   7      -1.549  14.900  23.218  0.00  0.00    -0.380 OA
ATOM    119  H   SER A   7      -2.352  14.820  22.645  0.00  0.00    +0.211 HD
ENDBRANCH 117 118
ENDBRANCH  64 117
ENDBRANCH   2  64
TORSDOF 50
REMARK  Name = ../refined-set-2016/1nvr/1nvr_pocket.pdb
REMARK  216 active torsions:
REMARK  status: ('A' for Active; 'I' for Inactive)
REMARK    1  A    between atoms: _1  and  _3
REMARK    2  A    between atoms: _3  and  _4
REMARK    3  A    between atoms: _3  and  _6
REMARK    4  A    between atoms: _6  and  _7
REMARK    5  A    between atoms: _7  and  _8
REMARK    6  A    between atoms: _13  and  _15
REMARK    7  A    between atoms: _15  and  _16
REMARK    8  A    between atoms: _15  and  _18
REMARK    9  A    between atoms: _18  and  _19
REMARK   10  A    between atoms: _22  and  _24
REMARK   11  A    between atoms: _24  and  _25
REMARK   12  A    between atoms: _24  and  _27
REMARK   13  A    between atoms: _27  and  _28
REMARK   14  A    between atoms: _31  and  _33
REMARK   15  A    between atoms: _33  and  _34
REMARK   16  A    between atoms: _36  and  _38
REMARK   17  A    between atoms: _38  and  _39
REMARK   18  A    between atoms: _38  and  _41
REMARK   19  A    between atoms: _41  and  _42
REMARK   20  A    between atoms: _42  and  _43
REMARK   21  A    between atoms: _46  and  _48
REMARK   22  A    between atoms: _48  and  _49
REMARK   23  A    between atoms: _51  and  _53
REMARK   24  A    between atoms: _53  and  _54
REMARK   25  A    between atoms: _53  and  _56
REMARK   26  A    between atoms: _56  and  _57
REMARK   27  A    between atoms: _62  and  _63
REMARK   28  A    between atoms: _65  and  _67
REMARK   29  A    between atoms: _67  and  _68
REMARK   30  A    between atoms: _70  and  _72
REMARK   31  A    between atoms: _72  and  _73
REMARK   32  A    between atoms: _72  and  _75
REMARK   33  A    between atoms: _75  and  _76
REMARK   34  A    between atoms: _76  and  _77
REMARK   35  A    between atoms: _80  and  _82
REMARK   36  A    between atoms: _82  and  _83
REMARK   37  A    between atoms: _82  and  _85
REMARK   38  A    between atoms: _88  and  _90
REMARK   39  A    between atoms: _90  and  _91
REMARK   40  A    between atoms: _90  and  _93
REMARK   41  A    between atoms: _93  and  _94
REMARK   42  A    between atoms: _94  and  _95
REMARK   43  A    between atoms: _100  and  _102
REMARK   44  A    between atoms: _102  and  _103
REMARK   45  A    between atoms: _102  and  _105
REMARK   46  A    between atoms: _105  and  _106
REMARK   47  A    between atoms: _109  and  _111
REMARK   48  A    between atoms: _111  and  _112
REMARK   49  A    between atoms: _115  and  _117
REMARK   50  A    between atoms: _117  and  _118
REMARK   51  A    between atoms: _121  and  _123
REMARK   52  A    between atoms: _123  and  _124
REMARK   53  A    between atoms: _123  and  _126
REMARK   54  A    between atoms: _129  and  _131
REMARK   55  A    between atoms: _131  and  _132
REMARK   56  A    between atoms: _135  and  _137
REMARK   57  A    between atoms: _137  and  _138
REMARK   58  A    between atoms: _137  and  _140
REMARK   59  A    between atoms: _143  and  _145
REMARK   60  A    between atoms: _145  and  _146
REMARK   61  A    between atoms: _145  and  _148
REMARK   62  A    between atoms: _148  and  _149
REMARK   63  A    between atoms: _149  and  _150
REMARK   64  A    between atoms: _150  and  _151
REMARK   65  A    between atoms: _151  and  _152
REMARK   66  A    between atoms: _156  and  _158
REMARK   67  A    between atoms: _158  and  _159
REMARK   68  A    between atoms: _158  and  _161
REMARK   69  A    between atoms: _161  and  _162
REMARK   70  A    between atoms: _165  and  _167
REMARK   71  A    between atoms: _167  and  _168
REMARK   72  A    between atoms: _167  and  _170
REMARK   73  A    between atoms: _173  and  _175
REMARK   74  A    between atoms: _175  and  _176
REMARK   75  A    between atoms: _175  and  _178
REMARK   76  A    between atoms: _178  and  _179
REMARK   77  A    between atoms: _179  and  _180
REMARK   78  A    between atoms: _183  and  _185
REMARK   79  A    between atoms: _185  and  _186
REMARK   80  A    between atoms: _185  and  _188
REMARK   81  A    between atoms: _188  and  _189
REMARK   82  A    between atoms: _194  and  _196
REMARK   83  A    between atoms: _196  and  _197
REMARK   84  A    between atoms: _196  and  _199
REMARK   85  A    between atoms: _202  and  _204
REMARK   86  A    between atoms: _204  and  _205
REMARK   87  A    between atoms: _204  and  _207
REMARK   88  A    between atoms: _207  and  _208
REMARK   89  A    between atoms: _208  and  _209
REMARK   90  A    between atoms: _209  and  _210
REMARK   91  A    between atoms: _210  and  _211
REMARK   92  A    between atoms: _215  and  _217
REMARK   93  A    between atoms: _217  and  _218
REMARK   94  A    between atoms: _217  and  _220
REMARK   95  A    between atoms: _220  and  _221
REMARK   96  A    between atoms: _226  and  _227
REMARK   97  A    between atoms: _229  and  _231
REMARK   98  A    between atoms: _231  and  _232
REMARK   99  A    between atoms: _231  and  _234
REMARK  100  A    between atoms: _234  and  _235
REMARK  101  A    between atoms: _238  and  _240
REMARK  102  A    between atoms: _240  and  _241
REMARK  103  A    between atoms: _240  and  _243
REMARK  104  A    between atoms: _243  and  _244
REMARK  105  A    between atoms: _250  and  _252
REMARK  106  A    between atoms: _252  and  _253
REMARK  107  A    between atoms: _252  and  _255
REMARK  108  A    between atoms: _255  and  _256
REMARK  109  A    between atoms: _259  and  _261
REMARK  110  A    between atoms: _261  and  _262
REMARK  111  A    between atoms: _261  and  _264
REMARK  112  A    between atoms: _264  and  _265
REMARK  113  A    between atoms: _265  and  _266
REMARK  114  A    between atoms: _269  and  _271
REMARK  115  A    between atoms: _271  and  _272
REMARK  116  A    between atoms: _271  and  _274
REMARK  117  A    between atoms: _274  and  _275
REMARK  118  A    between atoms: _280  and  _281
REMARK  119  A    between atoms: _283  and  _285
REMARK  120  A    between atoms: _285  and  _286
REMARK  121  A    between atoms: _285  and  _288
REMARK  122  A    between atoms: _290  and  _292
REMARK  123  A    between atoms: _292  and  _293
REMARK  124  A    between atoms: _292  and  _295
REMARK  125  A    between atoms: _295  and  _296
REMARK  126  A    between atoms: _298  and  _300
REMARK  127  A    between atoms: _300  and  _301
REMARK  128  A    between atoms: _303  and  _305
REMARK  129  A    between atoms: _305  and  _306
REMARK  130  A    between atoms: _308  and  _310
REMARK  131  A    between atoms: _310  and  _311
REMARK  132  A    between atoms: _310  and  _313
REMARK  133  A    between atoms: _313  and  _314
REMARK  134  A    between atoms: _314  and  _315
REMARK  135  A    between atoms: _318  and  _320
REMARK  136  A    between atoms: _320  and  _321
REMARK  137  A    between atoms: _320  and  _323
REMARK  138  A    between atoms: _323  and  _324
REMARK  139  A    between atoms: _327  and  _329
REMARK  140  A    between atoms: _329  and  _330
REMARK  141  A    between atoms: _329  and  _332
REMARK  142  A    between atoms: _332  and  _333
REMARK  143  A    between atoms: _339  and  _341
REMARK  144  A    between atoms: _341  and  _342
REMARK  145  A    between atoms: _341  and  _344
REMARK  146  A    between atoms: _344  and  _345
REMARK  147  A    between atoms: _348  and  _350
REMARK  148  A    between atoms: _350  and  _351
REMARK  149  A    between atoms: _350  and  _353
REMARK  150  A    between atoms: _353  and  _354
REMARK  151  A    between atoms: _359  and  _361
REMARK  152  A    between atoms: _361  and  _362
REMARK  153  A    between atoms: _361  and  _364
REMARK  154  A    between atoms: _364  and  _365
REMARK  155  A    between atoms: _368  and  _370
REMARK  156  A    between atoms: _370  and  _371
REMARK  157  A    between atoms: _370  and  _373
REMARK  158  A    between atoms: _373  and  _374
REMARK  159  A    between atoms: _374  and  _375
REMARK  160  A    between atoms: _375  and  _376
REMARK  161  A    between atoms: _376  and  _377
REMARK  162  A    between atoms: _382  and  _383
REMARK  163  A    between atoms: _388  and  _390
REMARK  164  A    between atoms: _390  and  _391
REMARK  165  A    between atoms: _390  and  _393
REMARK  166  A    between atoms: _393  and  _394
REMARK  167  A    between atoms: _394  and  _395
REMARK  168  A    between atoms: _398  and  _400
REMARK  169  A    between atoms: _400  and  _401
REMARK  170  A    between atoms: _400  and  _403
REMARK  171  A    between atoms: _403  and  _404
REMARK  172  A    between atoms: _409  and  _411
REMARK  173  A    between atoms: _411  and  _412
REMARK  174  A    between atoms: _411  and  _414
REMARK  175  A    between atoms: _414  and  _415
REMARK  176  A    between atoms: _418  and  _420
REMARK  177  A    between atoms: _420  and  _421
REMARK  178  A    between atoms: _420  and  _423
REMARK  179  A    between atoms: _423  and  _424
REMARK  180  A    between atoms: _427  and  _429
REMARK  181  A    between atoms: _429  and  _430
REMARK  182  A    between atoms: _429  and  _432
REMARK  183  A    between atoms: _432  and  _433
REMARK  184  A    between atoms: _436  and  _438
REMARK  185  A    between atoms: _438  and  _439
REMARK  186  A    between atoms: _438  and  _441
REMARK  187  A    between atoms: _441  and  _442
REMARK  188  A    between atoms: _445  and  _447
REMARK  189  A    between atoms: _447  and  _448
REMARK  190  A    between atoms: _447  and  _450
REMARK  191  A    between atoms: _450  and  _451
REMARK  192  A    between atoms: _451  and  _452
REMARK  193  A    between atoms: _452  and  _453
REMARK  194  A    between atoms: _453  and  _454
REMARK  195  A    between atoms: _458  and  _460
REMARK  196  A    between atoms: _460  and  _461
REMARK  197  A    between atoms: _460  and  _463
REMARK  198  A    between atoms: _463  and  _464
REMARK  199  A    between atoms: _467  and  _469
REMARK  200  A    between atoms: _469  and  _470
REMARK  201  A    between atoms: _469  and  _472
REMARK  202  A    between atoms: _472  and  _473
REMARK  203  A    between atoms: _475  and  _477
REMARK  204  A    between atoms: _477  and  _478
REMARK  205  A    between atoms: _477  and  _480
REMARK  206  A    between atoms: _480  and  _481
REMARK  207  A    between atoms: _484  and  _486
REMARK  208  A    between atoms: _486  and  _487
REMARK  209  A    between atoms: _486  and  _489
REMARK  210  A    between atoms: _489  and  _490
REMARK  211  A    between atoms: _496  and  _498
REMARK  212  A    between atoms: _498  and  _499
REMARK  213  A    between atoms: _501  and  _503
REMARK  214  A    between atoms: _503  and  _504
REMARK  215  A    between atoms: _503  and  _506
REMARK  216  A    between atoms: _506  and  _507
REMARK                            x       y       z     vdW  Elec       q    Type
REMARK                         _______ _______ _______ _____ _____    ______ ____
ROOT
ATOM      1  CB  HIS A   1      10.839  11.265   5.200  0.00  0.00    +0.072 C 
ENDROOT
BRANCH   1   2
ATOM      2  CG  HIS A   1      10.082  10.449   6.192  0.00  0.00    +0.082 A 
ATOM      3  CD2 HIS A   1      10.017  10.512   7.546  0.00  0.00    +0.115 A 
ATOM      4  NE2 HIS A   1       9.195   9.490   7.960  0.00  0.00    -0.221 NA
ATOM      5  CE1 HIS A   1       8.776   8.822   6.895  0.00  0.00    +0.199 A 
ATOM      6  ND1 HIS A   1       9.296   9.385   5.816  0.00  0.00    -0.227 NA
ENDBRANCH   1   2
BRANCH   1   7
ATOM      7  CA  HIS A   1      12.130  10.609   4.714  0.00  0.00    +0.139 C 
BRANCH   7   8
ATOM      8  N   HIS A   1      12.770  11.507   3.746  0.00  0.00    -0.239 NA
ATOM      9  H   HIS A   1      12.201  12.234   3.268  0.00  0.00    +0.142 HD
ENDBRANCH   7   8
BRANCH   7  10
ATOM     10  C   HIS A   1      11.858   9.215   4.108  0.00  0.00    +0.224 C 
ATOM     11  O   HIS A   1      12.093   8.188   4.769  0.00  0.00    -0.287 OA
ENDBRANCH   7  10
ENDBRANCH   1   7
TORSDOF 4
REMARK  Name = ../refined-set-2016/1nvr/1nvr_pocket.pdb
REMARK  216 active torsions:
REMARK  status: ('A' for Active; 'I' for Inactive)
REMARK    1  A    between atoms: _1  and  _3
REMARK    2  A    between atoms: _3  and  _4
REMARK    3  A    between atoms: _3  and  _6
REMARK    4  A    between atoms: _6  and  _7
REMARK    5  A    between atoms: _7  and  _8
REMARK    6  A    between atoms: _13  and  _15
REMARK    7  A    between atoms: _15  and  _16
REMARK    8  A    between atoms: _15  and  _18
REMARK    9  A    between atoms: _18  and  _19
REMARK   10  A    between atoms: _22  and  _24
REMARK   11  A    between atoms: _24  and  _25
REMARK   12  A    between atoms: _24  and  _27
REMARK   13  A    between atoms: _27  and  _28
REMARK   14  A    between atoms: _31  and  _33
REMARK   15  A    between atoms: _33  and  _34
REMARK   16  A    between atoms: _36  and  _38
REMARK   17  A    between atoms: _38  and  _39
REMARK   18  A    between atoms: _38  and  _41
REMARK   19  A    between atoms: _41  and  _42
REMARK   20  A    between atoms: _42  and  _43
REMARK   21  A    between atoms: _46  and  _48
REMARK   22  A    between atoms: _48  and  _49
REMARK   23  A    between atoms: _51  and  _53
REMARK   24  A    between atoms: _53  and  _54
REMARK   25  A    between atoms: _53  and  _56
REMARK   26  A    between atoms: _56  and  _57
REMARK   27  A    between atoms: _62  and  _63
REMARK   28  A    between atoms: _65  and  _67
REMARK   29  A    between atoms: _67  and  _68
REMARK   30  A    between atoms: _70  and  _72
REMARK   31  A    between atoms: _72  and  _73
REMARK   32  A    between atoms: _72  and  _75
REMARK   33  A    between atoms: _75  and  _76
REMARK   34  A    between atoms: _76  and  _77
REMARK   35  A    between atoms: _80  and  _82
REMARK   36  A    between atoms: _82  and  _83
REMARK   37  A    between atoms: _82  and  _85
REMARK   38  A    between atoms: _88  and  _90
REMARK   39  A    between atoms: _90  and  _91
REMARK   40  A    between atoms: _90  and  _93
REMARK   41  A    between atoms: _93  and  _94
REMARK   42  A    between atoms: _94  and  _95
REMARK   43  A    between atoms: _100  and  _102
REMARK   44  A    between atoms: _102  and  _103
REMARK   45  A    between atoms: _102  and  _105
REMARK   46  A    between atoms: _105  and  _106
REMARK   47  A    between atoms: _109  and  _111
REMARK   48  A    between atoms: _111  and  _112
REMARK   49  A    between atoms: _115  and  _117
REMARK   50  A    between atoms: _117  and  _118
REMARK   51  A    between atoms: _121  and  _123
REMARK   52  A    between atoms: _123  and  _124
REMARK   53  A    between atoms: _123  and  _126
REMARK   54  A    between atoms: _129  and  _131
REMARK   55  A    between atoms: _131  and  _132
REMARK   56  A    between atoms: _135  and  _137
REMARK   57  A    between atoms: _137  and  _138
REMARK   58  A    between atoms: _137  and  _140
REMARK   59  A    between atoms: _143  and  _145
REMARK   60  A    between atoms: _145  and  _146
REMARK   61  A    between atoms: _145  and  _148
REMARK   62  A    between atoms: _148  and  _149
REMARK   63  A    between atoms: _149  and  _150
REMARK   64  A    between atoms: _150  and  _151
REMARK   65  A    between atoms: _151  and  _152
REMARK   66  A    between atoms: _156  and  _158
REMARK   67  A    between atoms: _158  and  _159
REMARK   68  A    between atoms: _158  and  _161
REMARK   69  A    between atoms: _161  and  _162
REMARK   70  A    between atoms: _165  and  _167
REMARK   71  A    between atoms: _167  and  _168
REMARK   72  A    between atoms: _167  and  _170
REMARK   73  A    between atoms: _173  and  _175
REMARK   74  A    between atoms: _175  and  _176
REMARK   75  A    between atoms: _175  and  _178
REMARK   76  A    between atoms: _178  and  _179
REMARK   77  A    between atoms: _179  and  _180
REMARK   78  A    between atoms: _183  and  _185
REMARK   79  A    between atoms: _185  and  _186
REMARK   80  A    between atoms: _185  and  _188
REMARK   81  A    between atoms: _188  and  _189
REMARK   82  A    between atoms: _194  and  _196
REMARK   83  A    between atoms: _196  and  _197
REMARK   84  A    between atoms: _196  and  _199
REMARK   85  A    between atoms: _202  and  _204
REMARK   86  A    between atoms: _204  and  _205
REMARK   87  A    between atoms: _204  and  _207
REMARK   88  A    between atoms: _207  and  _208
REMARK   89  A    between atoms: _208  and  _209
REMARK   90  A    between atoms: _209  and  _210
REMARK   91  A    between atoms: _210  and  _211
REMARK   92  A    between atoms: _215  and  _217
REMARK   93  A    between atoms: _217  and  _218
REMARK   94  A    between atoms: _217  and  _220
REMARK   95  A    between atoms: _220  and  _221
REMARK   96  A    between atoms: _226  and  _227
REMARK   97  A    between atoms: _229  and  _231
REMARK   98  A    between atoms: _231  and  _232
REMARK   99  A    between atoms: _231  and  _234
REMARK  100  A    between atoms: _234  and  _235
REMARK  101  A    between atoms: _238  and  _240
REMARK  102  A    between atoms: _240  and  _241
REMARK  103  A    between atoms: _240  and  _243
REMARK  104  A    between atoms: _243  and  _244
REMARK  105  A    between atoms: _250  and  _252
REMARK  106  A    between atoms: _252  and  _253
REMARK  107  A    between atoms: _252  and  _255
REMARK  108  A    between atoms: _255  and  _256
REMARK  109  A    between atoms: _259  and  _261
REMARK  110  A    between atoms: _261  and  _262
REMARK  111  A    between atoms: _261  and  _264
REMARK  112  A    between atoms: _264  and  _265
REMARK  113  A    between atoms: _265  and  _266
REMARK  114  A    between atoms: _269  and  _271
REMARK  115  A    between atoms: _271  and  _272
REMARK  116  A    between atoms: _271  and  _274
REMARK  117  A    between atoms: _274  and  _275
REMARK  118  A    between atoms: _280  and  _281
REMARK  119  A    between atoms: _283  and  _285
REMARK  120  A    between atoms: _285  and  _286
REMARK  121  A    between atoms: _285  and  _288
REMARK  122  A    between atoms: _290  and  _292
REMARK  123  A    between atoms: _292  and  _293
REMARK  124  A    between atoms: _292  and  _295
REMARK  125  A    between atoms: _295  and  _296
REMARK  126  A    between atoms: _298  and  _300
REMARK  127  A    between atoms: _300  and  _301
REMARK  128  A    between atoms: _303  and  _305
REMARK  129  A    between atoms: _305  and  _306
REMARK  130  A    between atoms: _308  and  _310
REMARK  131  A    between atoms: _310  and  _311
REMARK  132  A    between atoms: _310  and  _313
REMARK  133  A    between atoms: _313  and  _314
REMARK  134  A    between atoms: _314  and  _315
REMARK  135  A    between atoms: _318  and  _320
REMARK  136  A    between atoms: _320  and  _321
REMARK  137  A    between atoms: _320  and  _323
REMARK  138  A    between atoms: _323  and  _324
REMARK  139  A    between atoms: _327  and  _329
REMARK  140  A    between atoms: _329  and  _330
REMARK  141  A    between atoms: _329  and  _332
REMARK  142  A    between atoms: _332  and  _333
REMARK  143  A    between atoms: _339  and  _341
REMARK  144  A    between atoms: _341  and  _342
REMARK  145  A    between atoms: _341  and  _344
REMARK  146  A    between atoms: _344  and  _345
REMARK  147  A    between atoms: _348  and  _350
REMARK  148  A    between atoms: _350  and  _351
REMARK  149  A    between atoms: _350  and  _353
REMARK  150  A    between atoms: _353  and  _354
REMARK  151  A    between atoms: _359  and  _361
REMARK  152  A    between atoms: _361  and  _362
REMARK  153  A    between atoms: _361  and  _364
REMARK  154  A    between atoms: _364  and  _365
REMARK  155  A    between atoms: _368  and  _370
REMARK  156  A    between atoms: _370  and  _371
REMARK  157  A    between atoms: _370  and  _373
REMARK  158  A    between atoms: _373  and  _374
REMARK  159  A    between atoms: _374  and  _375
REMARK  160  A    between atoms: _375  and  _376
REMARK  161  A    between atoms: _376  and  _377
REMARK  162  A    between atoms: _382  and  _383
REMARK  163  A    between atoms: _388  and  _390
REMARK  164  A    between atoms: _390  and  _391
REMARK  165  A    between atoms: _390  and  _393
REMARK  166  A    between atoms: _393  and  _394
REMARK  167  A    between atoms: _394  and  _395
REMARK  168  A    between atoms: _398  and  _400
REMARK  169  A    between atoms: _400  and  _401
REMARK  170  A    between atoms: _400  and  _403
REMARK  171  A    between atoms: _403  and  _404
REMARK  172  A    between atoms: _409  and  _411
REMARK  173  A    between atoms: _411  and  _412
REMARK  174  A    between atoms: _411  and  _414
REMARK  175  A    between atoms: _414  and  _415
REMARK  176  A    between atoms: _418  and  _420
REMARK  177  A    between atoms: _420  and  _421
REMARK  178  A    between atoms: _420  and  _423
REMARK  179  A    between atoms: _423  and  _424
REMARK  180  A    between atoms: _427  and  _429
REMARK  181  A    between atoms: _429  and  _430
REMARK  182  A    between atoms: _429  and  _432
REMARK  183  A    between atoms: _432  and  _433
REMARK  184  A    between atoms: _436  and  _438
REMARK  185  A    between atoms: _438  and  _439
REMARK  186  A    between atoms: _438  and  _441
REMARK  187  A    between atoms: _441  and  _442
REMARK  188  A    between atoms: _445  and  _447
REMARK  189  A    between atoms: _447  and  _448
REMARK  190  A    between atoms: _447  and  _450
REMARK  191  A    between atoms: _450  and  _451
REMARK  192  A    between atoms: _451  and  _452
REMARK  193  A    between atoms: _452  and  _453
REMARK  194  A    between atoms: _453  and  _454
REMARK  195  A    between atoms: _458  and  _460
REMARK  196  A    between atoms: _460  and  _461
REMARK  197  A    between atoms: _460  and  _463
REMARK  198  A    between atoms: _463  and  _464
REMARK  199  A    between atoms: _467  and  _469
REMARK  200  A    between atoms: _469  and  _470
REMARK  201  A    between atoms: _469  and  _472
REMARK  202  A    between atoms: _472  and  _473
REMARK  203  A    between atoms: _475  and  _477
REMARK  204  A    between atoms: _477  and  _478
REMARK  205  A    between atoms: _477  and  _480
REMARK  206  A    between atoms: _480  and  _481
REMARK  207  A    between atoms: _484  and  _486
REMARK  208  A    between atoms: _486  and  _487
REMARK  209  A    between atoms: _486  and  _489
REMARK  210  A    between atoms: _489  and  _490
REMARK  211  A    between atoms: _496  and  _498
REMARK  212  A    between atoms: _498  and  _499
REMARK  213  A    between atoms: _501  and  _503
REMARK  214  A    between atoms: _503  and  _504
REMARK  215  A    between atoms: _503  and  _506
REMARK  216  A    between atoms: _506  and  _507
REMARK                            x       y       z     vdW  Elec       q    Type
REMARK                         _______ _______ _______ _____ _____    ______ ____
ROOT
ATOM      1  CA  ASP A   1       8.034   6.694   3.841  0.00  0.00    +0.144 C 
ENDROOT
BRANCH   1   2
ATOM      2  N   ASP A   1       9.197   7.479   3.455  0.00  0.00    -0.239 NA
ATOM      3  H   ASP A   1       9.437   8.345   3.978  0.00  0.00    +0.142 HD
ENDBRANCH   1   2
BRANCH   1   4
ATOM      4  C   ASP A   1       6.952   7.577   4.413  0.00  0.00    +0.225 C 
ATOM      5  O   ASP A   1       6.350   7.266   5.440  0.00  0.00    -0.287 OA
ENDBRANCH   1   4
BRANCH   1   6
ATOM      6  CB  ASP A   1       8.427   5.601   4.845  0.00  0.00    +0.139 C 
BRANCH   6   7
ATOM      7  CG  ASP A   1       7.415   4.426   4.892  0.00  0.00    +0.367 C 
ATOM      8  OD2 ASP A   1       7.478   3.677   5.910  0.00  0.00    -0.246 OA
ATOM      9  OD1 ASP A   1       6.589   4.247   3.942  0.00  0.00    -0.246 OA
ENDBRANCH   6   7
ENDBRANCH   1   6
TORSDOF 4
REMARK  Name = ../refined-set-2016/1nvr/1nvr_pocket.pdb
REMARK  216 active torsions:
REMARK  status: ('A' for Active; 'I' for Inactive)
REMARK    1  A    between atoms: _1  and  _3
REMARK    2  A    between atoms: _3  and  _4
REMARK    3  A    between atoms: _3  and  _6
REMARK    4  A    between atoms: _6  and  _7
REMARK    5  A    between atoms: _7  and  _8
REMARK    6  A    between atoms: _13  and  _15
REMARK    7  A    between atoms: _15  and  _16
REMARK    8  A    between atoms: _15  and  _18
REMARK    9  A    between atoms: _18  and  _19
REMARK   10  A    between atoms: _22  and  _24
REMARK   11  A    between atoms: _24  and  _25
REMARK   12  A    between atoms: _24  and  _27
REMARK   13  A    between atoms: _27  and  _28
REMARK   14  A    between atoms: _31  and  _33
REMARK   15  A    between atoms: _33  and  _34
REMARK   16  A    between atoms: _36  and  _38
REMARK   17  A    between atoms: _38  and  _39
REMARK   18  A    between atoms: _38  and  _41
REMARK   19  A    between atoms: _41  and  _42
REMARK   20  A    between atoms: _42  and  _43
REMARK   21  A    between atoms: _46  and  _48
REMARK   22  A    between atoms: _48  and  _49
REMARK   23  A    between atoms: _51  and  _53
REMARK   24  A    between atoms: _53  and  _54
REMARK   25  A    between atoms: _53  and  _56
REMARK   26  A    between atoms: _56  and  _57
REMARK   27  A    between atoms: _62  and  _63
REMARK   28  A    between atoms: _65  and  _67
REMARK   29  A    between atoms: _67  and  _68
REMARK   30  A    between atoms: _70  and  _72
REMARK   31  A    between atoms: _72  and  _73
REMARK   32  A    between atoms: _72  and  _75
REMARK   33  A    between atoms: _75  and  _76
REMARK   34  A    between atoms: _76  and  _77
REMARK   35  A    between atoms: _80  and  _82
REMARK   36  A    between atoms: _82  and  _83
REMARK   37  A    between atoms: _82  and  _85
REMARK   38  A    between atoms: _88  and  _90
REMARK   39  A    between atoms: _90  and  _91
REMARK   40  A    between atoms: _90  and  _93
REMARK   41  A    between atoms: _93  and  _94
REMARK   42  A    between atoms: _94  and  _95
REMARK   43  A    between atoms: _100  and  _102
REMARK   44  A    between atoms: _102  and  _103
REMARK   45  A    between atoms: _102  and  _105
REMARK   46  A    between atoms: _105  and  _106
REMARK   47  A    between atoms: _109  and  _111
REMARK   48  A    between atoms: _111  and  _112
REMARK   49  A    between atoms: _115  and  _117
REMARK   50  A    between atoms: _117  and  _118
REMARK   51  A    between atoms: _121  and  _123
REMARK   52  A    between atoms: _123  and  _124
REMARK   53  A    between atoms: _123  and  _126
REMARK   54  A    between atoms: _129  and  _131
REMARK   55  A    between atoms: _131  and  _132
REMARK   56  A    between atoms: _135  and  _137
REMARK   57  A    between atoms: _137  and  _138
REMARK   58  A    between atoms: _137  and  _140
REMARK   59  A    between atoms: _143  and  _145
REMARK   60  A    between atoms: _145  and  _146
REMARK   61  A    between atoms: _145  and  _148
REMARK   62  A    between atoms: _148  and  _149
REMARK   63  A    between atoms: _149  and  _150
REMARK   64  A    between atoms: _150  and  _151
REMARK   65  A    between atoms: _151  and  _152
REMARK   66  A    between atoms: _156  and  _158
REMARK   67  A    between atoms: _158  and  _159
REMARK   68  A    between atoms: _158  and  _161
REMARK   69  A    between atoms: _161  and  _162
REMARK   70  A    between atoms: _165  and  _167
REMARK   71  A    between atoms: _167  and  _168
REMARK   72  A    between atoms: _167  and  _170
REMARK   73  A    between atoms: _173  and  _175
REMARK   74  A    between atoms: _175  and  _176
REMARK   75  A    between atoms: _175  and  _178
REMARK   76  A    between atoms: _178  and  _179
REMARK   77  A    between atoms: _179  and  _180
REMARK   78  A    between atoms: _183  and  _185
REMARK   79  A    between atoms: _185  and  _186
REMARK   80  A    between atoms: _185  and  _188
REMARK   81  A    between atoms: _188  and  _189
REMARK   82  A    between atoms: _194  and  _196
REMARK   83  A    between atoms: _196  and  _197
REMARK   84  A    between atoms: _196  and  _199
REMARK   85  A    between atoms: _202  and  _204
REMARK   86  A    between atoms: _204  and  _205
REMARK   87  A    between atoms: _204  and  _207
REMARK   88  A    between atoms: _207  and  _208
REMARK   89  A    between atoms: _208  and  _209
REMARK   90  A    between atoms: _209  and  _210
REMARK   91  A    between atoms: _210  and  _211
REMARK   92  A    between atoms: _215  and  _217
REMARK   93  A    between atoms: _217  and  _218
REMARK   94  A    between atoms: _217  and  _220
REMARK   95  A    between atoms: _220  and  _221
REMARK   96  A    between atoms: _226  and  _227
REMARK   97  A    between atoms: _229  and  _231
REMARK   98  A    between atoms: _231  and  _232
REMARK   99  A    between atoms: _231  and  _234
REMARK  100  A    between atoms: _234  and  _235
REMARK  101  A    between atoms: _238  and  _240
REMARK  102  A    between atoms: _240  and  _241
REMARK  103  A    between atoms: _240  and  _243
REMARK  104  A    between atoms: _243  and  _244
REMARK  105  A    between atoms: _250  and  _252
REMARK  106  A    between atoms: _252  and  _253
REMARK  107  A    between atoms: _252  and  _255
REMARK  108  A    between atoms: _255  and  _256
REMARK  109  A    between atoms: _259  and  _261
REMARK  110  A    between atoms: _261  and  _262
REMARK  111  A    between atoms: _261  and  _264
REMARK  112  A    between atoms: _264  and  _265
REMARK  113  A    between atoms: _265  and  _266
REMARK  114  A    between atoms: _269  and  _271
REMARK  115  A    between atoms: _271  and  _272
REMARK  116  A    between atoms: _271  and  _274
REMARK  117  A    between atoms: _274  and  _275
REMARK  118  A    between atoms: _280  and  _281
REMARK  119  A    between atoms: _283  and  _285
REMARK  120  A    between atoms: _285  and  _286
REMARK  121  A    between atoms: _285  and  _288
REMARK  122  A    between atoms: _290  and  _292
REMARK  123  A    between atoms: _292  and  _293
REMARK  124  A    between atoms: _292  and  _295
REMARK  125  A    between atoms: _295  and  _296
REMARK  126  A    between atoms: _298  and  _300
REMARK  127  A    between atoms: _300  and  _301
REMARK  128  A    between atoms: _303  and  _305
REMARK  129  A    between atoms: _305  and  _306
REMARK  130  A    between atoms: _308  and  _310
REMARK  131  A    between atoms: _310  and  _311
REMARK  132  A    between atoms: _310  and  _313
REMARK  133  A    between atoms: _313  and  _314
REMARK  134  A    between atoms: _314  and  _315
REMARK  135  A    between atoms: _318  and  _320
REMARK  136  A    between atoms: _320  and  _321
REMARK  137  A    between atoms: _320  and  _323
REMARK  138  A    between atoms: _323  and  _324
REMARK  139  A    between atoms: _327  and  _329
REMARK  140  A    between atoms: _329  and  _330
REMARK  141  A    between atoms: _329  and  _332
REMARK  142  A    between atoms: _332  and  _333
REMARK  143  A    between atoms: _339  and  _341
REMARK  144  A    between atoms: _341  and  _342
REMARK  145  A    between atoms: _341  and  _344
REMARK  146  A    between atoms: _344  and  _345
REMARK  147  A    between atoms: _348  and  _350
REMARK  148  A    between atoms: _350  and  _351
REMARK  149  A    between atoms: _350  and  _353
REMARK  150  A    between atoms: _353  and  _354
REMARK  151  A    between atoms: _359  and  _361
REMARK  152  A    between atoms: _361  and  _362
REMARK  153  A    between atoms: _361  and  _364
REMARK  154  A    between atoms: _364  and  _365
REMARK  155  A    between atoms: _368  and  _370
REMARK  156  A    between atoms: _370  and  _371
REMARK  157  A    between atoms: _370  and  _373
REMARK  158  A    between atoms: _373  and  _374
REMARK  159  A    between atoms: _374  and  _375
REMARK  160  A    between atoms: _375  and  _376
REMARK  161  A    between atoms: _376  and  _377
REMARK  162  A    between atoms: _382  and  _383
REMARK  163  A    between atoms: _388  and  _390
REMARK  164  A    between atoms: _390  and  _391
REMARK  165  A    between atoms: _390  and  _393
REMARK  166  A    between atoms: _393  and  _394
REMARK  167  A    between atoms: _394  and  _395
REMARK  168  A    between atoms: _398  and  _400
REMARK  169  A    between atoms: _400  and  _401
REMARK  170  A    between atoms: _400  and  _403
REMARK  171  A    between atoms: _403  and  _404
REMARK  172  A    between atoms: _409  and  _411
REMARK  173  A    between atoms: _411  and  _412
REMARK  174  A    between atoms: _411  and  _414
REMARK  175  A    between atoms: _414  and  _415
REMARK  176  A    between atoms: _418  and  _420
REMARK  177  A    between atoms: _420  and  _421
REMARK  178  A    between atoms: _420  and  _423
REMARK  179  A    between atoms: _423  and  _424
REMARK  180  A    between atoms: _427  and  _429
REMARK  181  A    between atoms: _429  and  _430
REMARK  182  A    between atoms: _429  and  _432
REMARK  183  A    between atoms: _432  and  _433
REMARK  184  A    between atoms: _436  and  _438
REMARK  185  A    between atoms: _438  and  _439
REMARK  186  A    between atoms: _438  and  _441
REMARK  187  A    between atoms: _441  and  _442
REMARK  188  A    between atoms: _445  and  _447
REMARK  189  A    between atoms: _447  and  _448
REMARK  190  A    between atoms: _447  and  _450
REMARK  191  A    between atoms: _450  and  _451
REMARK  192  A    between atoms: _451  and  _452
REMARK  193  A    between atoms: _452  and  _453
REMARK  194  A    between atoms: _453  and  _454
REMARK  195  A    between atoms: _458  and  _460
REMARK  196  A    between atoms: _460  and  _461
REMARK  197  A    between atoms: _460  and  _463
REMARK  198  A    between atoms: _463  and  _464
REMARK  199  A    between atoms: _467  and  _469
REMARK  200  A    between atoms: _469  and  _470
REMARK  201  A    between atoms: _469  and  _472
REMARK  202  A    between atoms: _472  and  _473
REMARK  203  A    between atoms: _475  and  _477
REMARK  204  A    between atoms: _477  and  _478
REMARK  205  A    between atoms: _477  and  _480
REMARK  206  A    between atoms: _480  and  _481
REMARK  207  A    between atoms: _484  and  _486
REMARK  208  A    between atoms: _486  and  _487
REMARK  209  A    between atoms: _486  and  _489
REMARK  210  A    between atoms: _489  and  _490
REMARK  211  A    between atoms: _496  and  _498
REMARK  212  A    between atoms: _498  and  _499
REMARK  213  A    between atoms: _501  and  _503
REMARK  214  A    between atoms: _503  and  _504
REMARK  215  A    between atoms: _503  and  _506
REMARK  216  A    between atoms: _506  and  _507
REMARK                            x       y       z     vdW  Elec       q    Type
REMARK                         _______ _______ _______ _____ _____    ______ ____
ROOT
ATOM      1  CA  ASN A   4       3.829   8.172  10.176  0.00  0.00    +0.158 C 
ENDROOT
BRANCH   1   4
ATOM      2  C   GLU A   3       1.713   6.923  10.442  0.00  0.00    +0.241 C 
ATOM      3  O   GLU A   3       1.973   6.596  11.620  0.00  0.00    -0.273 OA
ATOM      4  N   ASN A   4       2.538   7.656   9.679  0.00  0.00    -0.297 N 
ATOM      5  H   ASN A   4       2.258   7.869   8.700  0.00  0.00    +0.150 HD
BRANCH   2   6
ATOM      6  CA  GLU A   3       0.411   6.452   9.801  0.00  0.00    +0.149 C 
BRANCH   6   9
ATOM      7  C   PRO A   2      -0.346   8.427   8.671  0.00  0.00    +0.241 C 
ATOM      8  O   PRO A   2      -0.509   9.013   9.721  0.00  0.00    -0.273 OA
ATOM      9  N   GLU A   3       0.079   7.173   8.589  0.00  0.00    -0.297 N 
ATOM     10  H   GLU A   3       0.173   6.711   7.662  0.00  0.00    +0.150 HD
BRANCH   7  14
ATOM     11  C   LYS A   1       1.377   8.696   6.148  0.00  0.00    +0.241 C 
ATOM     12  O   LYS A   1       2.026   8.934   7.144  0.00  0.00    -0.273 OA
ATOM     13  N   PRO A   2       0.050   8.725   6.171  0.00  0.00    -0.272 N 
ATOM     14  CA  PRO A   2      -0.675   9.145   7.383  0.00  0.00    +0.152 C 
ATOM     15  CB  PRO A   2      -2.150   8.969   7.007  0.00  0.00    +0.031 C 
ATOM     16  CG  PRO A   2      -2.114   9.064   5.440  0.00  0.00    +0.024 C 
ATOM     17  CD  PRO A   2      -0.873   8.209   5.143  0.00  0.00    +0.094 C 
BRANCH  11  18
ATOM     18  CA  LYS A   1       2.064   8.292   4.839  0.00  0.00    +0.145 C 
BRANCH  18  19
ATOM     19  N   LYS A   1       3.399   8.848   4.958  0.00  0.00    -0.238 NA
ATOM     20  H   LYS A   1       3.718   9.189   5.887  0.00  0.00    +0.142 HD
ENDBRANCH  18  19
BRANCH  18  21
ATOM     21  CB  LYS A   1       2.126   6.758   4.658  0.00  0.00    +0.026 C 
BRANCH  21  22
ATOM     22  CG  LYS A   1       3.040   6.017   5.663  0.00  0.00    -0.000 C 
BRANCH  22  23
ATOM     23  CD  LYS A   1       3.046   4.509   5.373  0.00  0.00    -0.024 C 
BRANCH  23  24
ATOM     24  CE  LYS A   1       3.944   3.746   6.339  0.00  0.00    -0.086 C 
BRANCH  24  25
ATOM     25  NZ  LYS A   1       3.853   2.245   6.124  0.00  0.00    +0.380 N 
ATOM     26  HZ1 LYS A   1       4.478   1.761   6.800  0.00  0.00    -0.089 HD
ATOM     27  HZ2 LYS A   1       2.872   1.934   6.273  0.00  0.00    -0.089 HD
ATOM     28  HZ3 LYS A   1       4.147   2.017   5.153  0.00  0.00    -0.089 HD
ENDBRANCH  24  25
ENDBRANCH  23  24
ENDBRANCH  22  23
ENDBRANCH  21  22
ENDBRANCH  18  21
ENDBRANCH  11  18
ENDBRANCH   7  14
ENDBRANCH   6   9
BRANCH   6  29
ATOM     29  CB  GLU A   3       0.477   4.934   9.528  0.00  0.00    +0.041 C 
BRANCH  29  30
ATOM     30  CG  GLU A   3      -0.808   4.359   8.957  0.00  0.00    +0.116 C 
BRANCH  30  31
ATOM     31  CD  GLU A   3      -0.839   4.310   7.408  0.00  0.00    +0.365 C 
ATOM     32  OE2 GLU A   3      -1.374   3.298   6.893  0.00  0.00    -0.246 OA
ATOM     33  OE1 GLU A   3      -0.376   5.254   6.704  0.00  0.00    -0.246 OA
ENDBRANCH  30  31
ENDBRANCH  29  30
ENDBRANCH   6  29
ENDBRANCH   2   6
ENDBRANCH   1   4
BRANCH   1  34
ATOM     34  C   ASN A   4       3.799   9.680  10.436  0.00  0.00    +0.241 C 
ATOM     35  O   ASN A   4       4.858  10.267  10.754  0.00  0.00    -0.273 OA
ATOM     36  N   LEU A   5       2.626  10.299  10.259  0.00  0.00    -0.297 N 
ATOM     37  H   LEU A   5       1.811   9.738   9.938  0.00  0.00    +0.150 HD
BRANCH  36  38
ATOM     38  CA  LEU A   5       2.438  11.745  10.500  0.00  0.00    +0.149 C 
BRANCH  38  39
ATOM     39  C   LEU A   5       1.616  11.797  11.790  0.00  0.00    +0.241 C 
ATOM     40  N   LEU A   6       2.256  12.236  12.859  0.00  0.00    -0.297 N 
ATOM     41  H   LEU A   6       3.241  12.553  12.758  0.00  0.00    +0.150 HD
ATOM     42  O   LEU A   5       0.454  11.363  11.806  0.00  0.00    -0.273 OA
BRANCH  40  43
ATOM     43  CA  LEU A   6       1.622  12.293  14.195  0.00  0.00    +0.149 C 
BRANCH  43  44
ATOM     44  C   LEU A   6       1.109  13.684  14.493  0.00  0.00    +0.241 C 
ATOM     45  N   LEU A   7       0.262  13.792  15.525  0.00  0.00    -0.297 N 
ATOM     46  H   LEU A   7       0.041  12.950  16.094  0.00  0.00    +0.150 HD
ATOM     47  O   LEU A   6       1.486  14.645  13.822  0.00  0.00    -0.273 OA
BRANCH  45  48
ATOM     48  CA  LEU A   7      -0.357  15.071  15.865  0.00  0.00    +0.149 C 
BRANCH  48  49
ATOM     49  C   LEU A   7      -0.129  15.387  17.346  0.00  0.00    +0.241 C 
ATOM     50  O   LEU A   7      -0.224  14.473  18.169  0.00  0.00    -0.273 OA
ATOM     51  N   ASP A   8       0.213  16.628  17.682  0.00  0.00    -0.298 N 
ATOM     52  H   ASP A   8       0.345  17.353  16.948  0.00  0.00    +0.150 HD
BRANCH  51  53
ATOM     53  CA  ASP A   8       0.403  16.966  19.102  0.00  0.00    +0.148 C 
BRANCH  53  54
ATOM     54  C   ASP A   8      -0.955  17.335  19.688  0.00  0.00    +0.227 C 
ATOM     55  O   ASP A   8      -2.000  17.166  19.027  0.00  0.00    -0.286 OA
ENDBRANCH  53  54
BRANCH  53  56
ATOM     56  CB  ASP A   8       1.433  18.117  19.314  0.00  0.00    +0.142 C 
BRANCH  56  57
ATOM     57  CG  ASP A   8       0.919  19.470  18.886  0.00  0.00    +0.367 C 
ATOM     58  OD2 ASP A   8       1.716  20.424  18.907  0.00  0.00    -0.246 OA
ATOM     59  OD1 ASP A   8      -0.261  19.611  18.528  0.00  0.00    -0.246 OA
ENDBRANCH  56  57
ENDBRANCH  53  56
ENDBRANCH  51  53
ENDBRANCH  48  49
BRANCH  48  60
ATOM     60  CB  LEU A   7      -1.865  14.964  15.597  0.00  0.00    +0.029 C 
BRANCH  60  61
ATOM     61  CG  LEU A   7      -2.315  14.776  14.136  0.00  0.00    +0.002 C 
ATOM     62  CD2 LEU A   7      -3.830  14.530  14.068  0.00  0.00    +0.000 C 
ATOM     63  CD1 LEU A   7      -1.896  15.990  13.336  0.00  0.00    +0.000 C 
ENDBRANCH  60  61
ENDBRANCH  48  60
ENDBRANCH  45  48
ENDBRANCH  43  44
BRANCH  43  64
ATOM     64  CB  LEU A   6       2.620  11.854  15.298  0.00  0.00    +0.029 C 
BRANCH  64  65
ATOM     65  CG  LEU A   6       3.243  10.481  14.993  0.00  0.00    +0.002 C 
ATOM     66  CD2 LEU A   6       4.383  10.140  16.006  0.00  0.00    +0.000 C 
ATOM     67  CD1 LEU A   6       2.101   9.433  15.007  0.00  0.00    +0.000 C 
ENDBRANCH  64  65
ENDBRANCH  43  64
ENDBRANCH  40  43
ENDBRANCH  38  39
BRANCH  38  68
ATOM     68  CB  LEU A   5       1.649  12.387   9.379  0.00  0.00    +0.029 C 
BRANCH  68  69
ATOM     69  CG  LEU A   5       2.398  12.261   8.035  0.00  0.00    +0.002 C 
ATOM     70  CD2 LEU A   5       3.729  13.005   8.132  0.00  0.00    +0.000 C 
ATOM     71  CD1 LEU A   5       1.532  12.805   6.849  0.00  0.00    +0.000 C 
ENDBRANCH  68  69
ENDBRANCH  38  68
ENDBRANCH  36  38
ENDBRANCH   1  34
BRANCH   1  72
ATOM     72  CB  ASN A   4       4.956   7.905   9.164  0.00  0.00    +0.114 C 
BRANCH  72  73
ATOM     73  CG  ASN A   4       5.372   6.448   9.124  0.00  0.00    +0.222 C 
ATOM     74  OD1 ASN A   4       5.122   5.690  10.097  0.00  0.00    -0.275 OA
ATOM     75  ND2 ASN A   4       6.043   6.036   8.019  0.00  0.00    -0.329 N 
ATOM     76 HD21 ASN A   4       6.376   5.053   7.949  0.00  0.00    +0.145 HD
ATOM     77 HD22 ASN A   4       6.224   6.703   7.242  0.00  0.00    +0.145 HD
ENDBRANCH  72  73
ENDBRANCH   1  72
TORSDOF 33
REMARK  Name = ../refined-set-2016/1nvr/1nvr_pocket.pdb
REMARK  216 active torsions:
REMARK  status: ('A' for Active; 'I' for Inactive)
REMARK    1  A    between atoms: _1  and  _3
REMARK    2  A    between atoms: _3  and  _4
REMARK    3  A    between atoms: _3  and  _6
REMARK    4  A    between atoms: _6  and  _7
REMARK    5  A    between atoms: _7  and  _8
REMARK    6  A    between atoms: _13  and  _15
REMARK    7  A    between atoms: _15  and  _16
REMARK    8  A    between atoms: _15  and  _18
REMARK    9  A    between atoms: _18  and  _19
REMARK   10  A    between atoms: _22  and  _24
REMARK   11  A    between atoms: _24  and  _25
REMARK   12  A    between atoms: _24  and  _27
REMARK   13  A    between atoms: _27  and  _28
REMARK   14  A    between atoms: _31  and  _33
REMARK   15  A    between atoms: _33  and  _34
REMARK   16  A    between atoms: _36  and  _38
REMARK   17  A    between atoms: _38  and  _39
REMARK   18  A    between atoms: _38  and  _41
REMARK   19  A    between atoms: _41  and  _42
REMARK   20  A    between atoms: _42  and  _43
REMARK   21  A    between atoms: _46  and  _48
REMARK   22  A    between atoms: _48  and  _49
REMARK   23  A    between atoms: _51  and  _53
REMARK   24  A    between atoms: _53  and  _54
REMARK   25  A    between atoms: _53  and  _56
REMARK   26  A    between atoms: _56  and  _57
REMARK   27  A    between atoms: _62  and  _63
REMARK   28  A    between atoms: _65  and  _67
REMARK   29  A    between atoms: _67  and  _68
REMARK   30  A    between atoms: _70  and  _72
REMARK   31  A    between atoms: _72  and  _73
REMARK   32  A    between atoms: _72  and  _75
REMARK   33  A    between atoms: _75  and  _76
REMARK   34  A    between atoms: _76  and  _77
REMARK   35  A    between atoms: _80  and  _82
REMARK   36  A    between atoms: _82  and  _83
REMARK   37  A    between atoms: _82  and  _85
REMARK   38  A    between atoms: _88  and  _90
REMARK   39  A    between atoms: _90  and  _91
REMARK   40  A    between atoms: _90  and  _93
REMARK   41  A    between atoms: _93  and  _94
REMARK   42  A    between atoms: _94  and  _95
REMARK   43  A    between atoms: _100  and  _102
REMARK   44  A    between atoms: _102  and  _103
REMARK   45  A    between atoms: _102  and  _105
REMARK   46  A    between atoms: _105  and  _106
REMARK   47  A    between atoms: _109  and  _111
REMARK   48  A    between atoms: _111  and  _112
REMARK   49  A    between atoms: _115  and  _117
REMARK   50  A    between atoms: _117  and  _118
REMARK   51  A    between atoms: _121  and  _123
REMARK   52  A    between atoms: _123  and  _124
REMARK   53  A    between atoms: _123  and  _126
REMARK   54  A    between atoms: _129  and  _131
REMARK   55  A    between atoms: _131  and  _132
REMARK   56  A    between atoms: _135  and  _137
REMARK   57  A    between atoms: _137  and  _138
REMARK   58  A    between atoms: _137  and  _140
REMARK   59  A    between atoms: _143  and  _145
REMARK   60  A    between atoms: _145  and  _146
REMARK   61  A    between atoms: _145  and  _148
REMARK   62  A    between atoms: _148  and  _149
REMARK   63  A    between atoms: _149  and  _150
REMARK   64  A    between atoms: _150  and  _151
REMARK   65  A    between atoms: _151  and  _152
REMARK   66  A    between atoms: _156  and  _158
REMARK   67  A    between atoms: _158  and  _159
REMARK   68  A    between atoms: _158  and  _161
REMARK   69  A    between atoms: _161  and  _162
REMARK   70  A    between atoms: _165  and  _167
REMARK   71  A    between atoms: _167  and  _168
REMARK   72  A    between atoms: _167  and  _170
REMARK   73  A    between atoms: _173  and  _175
REMARK   74  A    between atoms: _175  and  _176
REMARK   75  A    between atoms: _175  and  _178
REMARK   76  A    between atoms: _178  and  _179
REMARK   77  A    between atoms: _179  and  _180
REMARK   78  A    between atoms: _183  and  _185
REMARK   79  A    between atoms: _185  and  _186
REMARK   80  A    between atoms: _185  and  _188
REMARK   81  A    between atoms: _188  and  _189
REMARK   82  A    between atoms: _194  and  _196
REMARK   83  A    between atoms: _196  and  _197
REMARK   84  A    between atoms: _196  and  _199
REMARK   85  A    between atoms: _202  and  _204
REMARK   86  A    between atoms: _204  and  _205
REMARK   87  A    between atoms: _204  and  _207
REMARK   88  A    between atoms: _207  and  _208
REMARK   89  A    between atoms: _208  and  _209
REMARK   90  A    between atoms: _209  and  _210
REMARK   91  A    between atoms: _210  and  _211
REMARK   92  A    between atoms: _215  and  _217
REMARK   93  A    between atoms: _217  and  _218
REMARK   94  A    between atoms: _217  and  _220
REMARK   95  A    between atoms: _220  and  _221
REMARK   96  A    between atoms: _226  and  _227
REMARK   97  A    between atoms: _229  and  _231
REMARK   98  A    between atoms: _231  and  _232
REMARK   99  A    between atoms: _231  and  _234
REMARK  100  A    between atoms: _234  and  _235
REMARK  101  A    between atoms: _238  and  _240
REMARK  102  A    between atoms: _240  and  _241
REMARK  103  A    between atoms: _240  and  _243
REMARK  104  A    between atoms: _243  and  _244
REMARK  105  A    between atoms: _250  and  _252
REMARK  106  A    between atoms: _252  and  _253
REMARK  107  A    between atoms: _252  and  _255
REMARK  108  A    between atoms: _255  and  _256
REMARK  109  A    between atoms: _259  and  _261
REMARK  110  A    between atoms: _261  and  _262
REMARK  111  A    between atoms: _261  and  _264
REMARK  112  A    between atoms: _264  and  _265
REMARK  113  A    between atoms: _265  and  _266
REMARK  114  A    between atoms: _269  and  _271
REMARK  115  A    between atoms: _271  and  _272
REMARK  116  A    between atoms: _271  and  _274
REMARK  117  A    between atoms: _274  and  _275
REMARK  118  A    between atoms: _280  and  _281
REMARK  119  A    between atoms: _283  and  _285
REMARK  120  A    between atoms: _285  and  _286
REMARK  121  A    between atoms: _285  and  _288
REMARK  122  A    between atoms: _290  and  _292
REMARK  123  A    between atoms: _292  and  _293
REMARK  124  A    between atoms: _292  and  _295
REMARK  125  A    between atoms: _295  and  _296
REMARK  126  A    between atoms: _298  and  _300
REMARK  127  A    between atoms: _300  and  _301
REMARK  128  A    between atoms: _303  and  _305
REMARK  129  A    between atoms: _305  and  _306
REMARK  130  A    between atoms: _308  and  _310
REMARK  131  A    between atoms: _310  and  _311
REMARK  132  A    between atoms: _310  and  _313
REMARK  133  A    between atoms: _313  and  _314
REMARK  134  A    between atoms: _314  and  _315
REMARK  135  A    between atoms: _318  and  _320
REMARK  136  A    between atoms: _320  and  _321
REMARK  137  A    between atoms: _320  and  _323
REMARK  138  A    between atoms: _323  and  _324
REMARK  139  A    between atoms: _327  and  _329
REMARK  140  A    between atoms: _329  and  _330
REMARK  141  A    between atoms: _329  and  _332
REMARK  142  A    between atoms: _332  and  _333
REMARK  143  A    between atoms: _339  and  _341
REMARK  144  A    between atoms: _341  and  _342
REMARK  145  A    between atoms: _341  and  _344
REMARK  146  A    between atoms: _344  and  _345
REMARK  147  A    between atoms: _348  and  _350
REMARK  148  A    between atoms: _350  and  _351
REMARK  149  A    between atoms: _350  and  _353
REMARK  150  A    between atoms: _353  and  _354
REMARK  151  A    between atoms: _359  and  _361
REMARK  152  A    between atoms: _361  and  _362
REMARK  153  A    between atoms: _361  and  _364
REMARK  154  A    between atoms: _364  and  _365
REMARK  155  A    between atoms: _368  and  _370
REMARK  156  A    between atoms: _370  and  _371
REMARK  157  A    between atoms: _370  and  _373
REMARK  158  A    between atoms: _373  and  _374
REMARK  159  A    between atoms: _374  and  _375
REMARK  160  A    between atoms: _375  and  _376
REMARK  161  A    between atoms: _376  and  _377
REMARK  162  A    between atoms: _382  and  _383
REMARK  163  A    between atoms: _388  and  _390
REMARK  164  A    between atoms: _390  and  _391
REMARK  165  A    between atoms: _390  and  _393
REMARK  166  A    between atoms: _393  and  _394
REMARK  167  A    between atoms: _394  and  _395
REMARK  168  A    between atoms: _398  and  _400
REMARK  169  A    between atoms: _400  and  _401
REMARK  170  A    between atoms: _400  and  _403
REMARK  171  A    between atoms: _403  and  _404
REMARK  172  A    between atoms: _409  and  _411
REMARK  173  A    between atoms: _411  and  _412
REMARK  174  A    between atoms: _411  and  _414
REMARK  175  A    between atoms: _414  and  _415
REMARK  176  A    between atoms: _418  and  _420
REMARK  177  A    between atoms: _420  and  _421
REMARK  178  A    between atoms: _420  and  _423
REMARK  179  A    between atoms: _423  and  _424
REMARK  180  A    between atoms: _427  and  _429
REMARK  181  A    between atoms: _429  and  _430
REMARK  182  A    between atoms: _429  and  _432
REMARK  183  A    between atoms: _432  and  _433
REMARK  184  A    between atoms: _436  and  _438
REMARK  185  A    between atoms: _438  and  _439
REMARK  186  A    between atoms: _438  and  _441
REMARK  187  A    between atoms: _441  and  _442
REMARK  188  A    between atoms: _445  and  _447
REMARK  189  A    between atoms: _447  and  _448
REMARK  190  A    between atoms: _447  and  _450
REMARK  191  A    between atoms: _450  and  _451
REMARK  192  A    between atoms: _451  and  _452
REMARK  193  A    between atoms: _452  and  _453
REMARK  194  A    between atoms: _453  and  _454
REMARK  195  A    between atoms: _458  and  _460
REMARK  196  A    between atoms: _460  and  _461
REMARK  197  A    between atoms: _460  and  _463
REMARK  198  A    between atoms: _463  and  _464
REMARK  199  A    between atoms: _467  and  _469
REMARK  200  A    between atoms: _469  and  _470
REMARK  201  A    between atoms: _469  and  _472
REMARK  202  A    between atoms: _472  and  _473
REMARK  203  A    between atoms: _475  and  _477
REMARK  204  A    between atoms: _477  and  _478
REMARK  205  A    between atoms: _477  and  _480
REMARK  206  A    between atoms: _480  and  _481
REMARK  207  A    between atoms: _484  and  _486
REMARK  208  A    between atoms: _486  and  _487
REMARK  209  A    between atoms: _486  and  _489
REMARK  210  A    between atoms: _489  and  _490
REMARK  211  A    between atoms: _496  and  _498
REMARK  212  A    between atoms: _498  and  _499
REMARK  213  A    between atoms: _501  and  _503
REMARK  214  A    between atoms: _503  and  _504
REMARK  215  A    between atoms: _503  and  _506
REMARK  216  A    between atoms: _506  and  _507
REMARK                            x       y       z     vdW  Elec       q    Type
REMARK                         _______ _______ _______ _____ _____    ______ ____
ROOT
ATOM      1  CA  ASP A   4       9.912   7.487  12.113  0.00  0.00    +0.160 C 
ENDROOT
BRANCH   1   2
ATOM      2  C   ASP A   4      10.868   7.666  10.937  0.00  0.00    +0.241 C 
ATOM      3  N   PHE A   5      12.133   7.928  11.272  0.00  0.00    -0.297 N 
ATOM      4  H   PHE A   5      12.377   7.978  12.282  0.00  0.00    +0.150 HD
ATOM      5  O   ASP A   4      10.469   7.543   9.762  0.00  0.00    -0.273 OA
BRANCH   3   6
ATOM      6  CA  PHE A   5      13.187   8.147  10.295  0.00  0.00    +0.153 C 
BRANCH   6   7
ATOM      7  C   PHE A   5      14.019   6.906  10.040  0.00  0.00    +0.241 C 
ATOM      8  N   GLY A   6      13.376   5.767  10.266  0.00  0.00    -0.295 N 
ATOM      9  H   GLY A   6      12.384   5.802  10.575  0.00  0.00    +0.150 HD
ATOM     10  O   PHE A   5      15.187   6.978   9.624  0.00  0.00    -0.273 OA
BRANCH   8  11
ATOM     11  CA  GLY A   6      14.019   4.465  10.094  0.00  0.00    +0.176 C 
BRANCH  11  12
ATOM     12  C   GLY A   6      14.381   4.176   8.636  0.00  0.00    +0.243 C 
ATOM     13  O   GLY A   6      15.228   3.338   8.367  0.00  0.00    -0.273 OA
ATOM     14  N   LEU A   7      13.736   4.842   7.687  0.00  0.00    -0.298 N 
ATOM     15  H   LEU A   7      13.001   5.528   7.953  0.00  0.00    +0.150 HD
BRANCH  14  16
ATOM     16  CA  LEU A   7      14.042   4.628   6.270  0.00  0.00    +0.137 C 
BRANCH  16  17
ATOM     17  C   LEU A   7      14.698   5.856   5.635  0.00  0.00    +0.227 C 
ATOM     18  O   LEU A   7      15.042   5.830   4.455  0.00  0.00    -0.286 OA
ENDBRANCH  16  17
BRANCH  16  19
ATOM     19  CB  LEU A   7      12.751   4.312   5.508  0.00  0.00    +0.028 C 
BRANCH  19  20
ATOM     20  CG  LEU A   7      12.224   2.867   5.614  0.00  0.00    +0.002 C 
ATOM     21  CD2 LEU A   7      13.323   1.873   5.131  0.00  0.00    +0.000 C 
ATOM     22  CD1 LEU A   7      10.943   2.725   4.720  0.00  0.00    +0.000 C 
ENDBRANCH  19  20
ENDBRANCH  16  19
ENDBRANCH  14  16
ENDBRANCH  11  12
ENDBRANCH   8  11
ENDBRANCH   6   7
BRANCH   6  23
ATOM     23  CB  PHE A   5      14.038   9.335  10.766  0.00  0.00    +0.055 C 
BRANCH  23  24
ATOM     24  CG  PHE A   5      13.343  10.661  10.540  0.00  0.00    -0.020 A 
ATOM     25  CD2 PHE A   5      12.403  11.149  11.451  0.00  0.00    -0.004 A 
ATOM     26  CE2 PHE A   5      11.706  12.375  11.194  0.00  0.00    -0.000 A 
ATOM     27  CZ  PHE A   5      11.977  13.082  10.028  0.00  0.00    -0.000 A 
ATOM     28  CE1 PHE A   5      12.920  12.592   9.125  0.00  0.00    -0.000 A 
ATOM     29  CD1 PHE A   5      13.595  11.393   9.376  0.00  0.00    -0.004 A 
ENDBRANCH  23  24
ENDBRANCH   6  23
ENDBRANCH   3   6
ENDBRANCH   1   2
BRANCH   1  31
ATOM     30  C   SER A   3       8.496   9.516  11.835  0.00  0.00    +0.243 C 
ATOM     31  N   ASP A   4       9.309   8.746  12.564  0.00  0.00    -0.296 N 
ATOM     32  H   ASP A   4       9.532   9.065  13.528  0.00  0.00    +0.150 HD
ATOM     33  O   SER A   3       8.123   9.249  10.688  0.00  0.00    -0.273 OA
BRANCH  30  34
ATOM     34  CA  SER A   3       7.999  10.795  12.527  0.00  0.00    +0.178 C 
BRANCH  34  37
ATOM     35  C   ILE A   2       7.517  13.000  11.673  0.00  0.00    +0.241 C 
ATOM     36  O   ILE A   2       8.376  13.516  12.415  0.00  0.00    -0.273 OA
ATOM     37  N   SER A   3       7.299  11.681  11.616  0.00  0.00    -0.295 N 
ATOM     38  H   SER A   3       6.630  11.292  10.921  0.00  0.00    +0.150 HD
BRANCH  35  39
ATOM     39  CA  ILE A   2       6.717  13.883  10.732  0.00  0.00    +0.148 C 
BRANCH  39  42
ATOM     40  C   LYS A   1       5.255  14.838  12.414  0.00  0.00    +0.238 C 
ATOM     41  O   LYS A   1       4.747  13.741  12.669  0.00  0.00    -0.274 OA
ATOM     42  N   ILE A   2       6.211  15.003  11.529  0.00  0.00    -0.297 N 
ATOM     43  H   ILE A   2       6.618  15.950  11.391  0.00  0.00    +0.150 HD
BRANCH  40  44
ATOM     44  CA  LYS A   1       4.814  16.063  13.178  0.00  0.00    +0.145 C 
BRANCH  44  45
ATOM     45  N   LYS A   1       3.400  16.276  12.875  0.00  0.00    -0.238 NA
ATOM     46  H   LYS A   1       2.760  15.460  12.795  0.00  0.00    +0.142 HD
ENDBRANCH  44  45
BRANCH  44  47
ATOM     47  CB  LYS A   1       4.999  15.719  14.667  0.00  0.00    +0.026 C 
BRANCH  47  48
ATOM     48  CG  LYS A   1       4.373  16.682  15.677  0.00  0.00    -0.000 C 
BRANCH  48  49
ATOM     49  CD  LYS A   1       5.337  17.813  15.896  0.00  0.00    -0.024 C 
BRANCH  49  50
ATOM     50  CE  LYS A   1       4.775  18.795  16.950  0.00  0.00    -0.086 C 
BRANCH  50  51
ATOM     51  NZ  LYS A   1       5.891  19.707  17.408  0.00  0.00    +0.380 N 
ATOM     52  HZ1 LYS A   1       5.524  20.372  18.118  0.00  0.00    -0.089 HD
ATOM     53  HZ2 LYS A   1       6.653  19.137  17.827  0.00  0.00    -0.089 HD
ATOM     54  HZ3 LYS A   1       6.261  20.237  16.593  0.00  0.00    -0.089 HD
ENDBRANCH  50  51
ENDBRANCH  49  50
ENDBRANCH  48  49
ENDBRANCH  47  48
ENDBRANCH  44  47
ENDBRANCH  40  44
ENDBRANCH  39  42
BRANCH  39  55
ATOM     55  CB  ILE A   2       7.651  14.423   9.616  0.00  0.00    +0.027 C 
ATOM     56  CG2 ILE A   2       8.230  13.255   8.800  0.00  0.00    +0.002 C 
BRANCH  55  57
ATOM     57  CG1 ILE A   2       6.830  15.359   8.721  0.00  0.00    +0.002 C 
ATOM     58  CD1 ILE A   2       7.622  16.000   7.589  0.00  0.00    +0.000 C 
ENDBRANCH  55  57
ENDBRANCH  39  55
ENDBRANCH  35  39
ENDBRANCH  34  37
BRANCH  34  59
ATOM     59  CB  SER A   3       7.053  10.407  13.665  0.00  0.00    +0.166 C 
BRANCH  59  60
ATOM     60  OG  SER A   3       6.095   9.506  13.154  0.00  0.00    -0.380 OA
ATOM     61  H   SER A   3       5.589   9.943  12.424  0.00  0.00    +0.211 HD
ENDBRANCH  59  60
ENDBRANCH  34  59
ENDBRANCH  30  34
ENDBRANCH   1  31
BRANCH   1  62
ATOM     62  CB  ASP A   4       8.859   6.452  11.737  0.00  0.00    +0.143 C 
BRANCH  62  63
ATOM     63  CG  ASP A   4       9.456   5.054  11.618  0.00  0.00    +0.367 C 
ATOM     64  OD2 ASP A   4       8.698   4.050  11.600  0.00  0.00    -0.246 OA
ATOM     65  OD1 ASP A   4      10.691   4.965  11.539  0.00  0.00    -0.246 OA
ENDBRANCH  62  63
ENDBRANCH   1  62
TORSDOF 29
REMARK  Name = ../refined-set-2016/1nvr/1nvr_pocket.pdb
REMARK  216 active torsions:
REMARK  status: ('A' for Active; 'I' for Inactive)
REMARK    1  A    between atoms: _1  and  _3
REMARK    2  A    between atoms: _3  and  _4
REMARK    3  A    between atoms: _3  and  _6
REMARK    4  A    between atoms: _6  and  _7
REMARK    5  A    between atoms: _7  and  _8
REMARK    6  A    between atoms: _13  and  _15
REMARK    7  A    between atoms: _15  and  _16
REMARK    8  A    between atoms: _15  and  _18
REMARK    9  A    between atoms: _18  and  _19
REMARK   10  A    between atoms: _22  and  _24
REMARK   11  A    between atoms: _24  and  _25
REMARK   12  A    between atoms: _24  and  _27
REMARK   13  A    between atoms: _27  and  _28
REMARK   14  A    between atoms: _31  and  _33
REMARK   15  A    between atoms: _33  and  _34
REMARK   16  A    between atoms: _36  and  _38
REMARK   17  A    between atoms: _38  and  _39
REMARK   18  A    between atoms: _38  and  _41
REMARK   19  A    between atoms: _41  and  _42
REMARK   20  A    between atoms: _42  and  _43
REMARK   21  A    between atoms: _46  and  _48
REMARK   22  A    between atoms: _48  and  _49
REMARK   23  A    between atoms: _51  and  _53
REMARK   24  A    between atoms: _53  and  _54
REMARK   25  A    between atoms: _53  and  _56
REMARK   26  A    between atoms: _56  and  _57
REMARK   27  A    between atoms: _62  and  _63
REMARK   28  A    between atoms: _65  and  _67
REMARK   29  A    between atoms: _67  and  _68
REMARK   30  A    between atoms: _70  and  _72
REMARK   31  A    between atoms: _72  and  _73
REMARK   32  A    between atoms: _72  and  _75
REMARK   33  A    between atoms: _75  and  _76
REMARK   34  A    between atoms: _76  and  _77
REMARK   35  A    between atoms: _80  and  _82
REMARK   36  A    between atoms: _82  and  _83
REMARK   37  A    between atoms: _82  and  _85
REMARK   38  A    between atoms: _88  and  _90
REMARK   39  A    between atoms: _90  and  _91
REMARK   40  A    between atoms: _90  and  _93
REMARK   41  A    between atoms: _93  and  _94
REMARK   42  A    between atoms: _94  and  _95
REMARK   43  A    between atoms: _100  and  _102
REMARK   44  A    between atoms: _102  and  _103
REMARK   45  A    between atoms: _102  and  _105
REMARK   46  A    between atoms: _105  and  _106
REMARK   47  A    between atoms: _109  and  _111
REMARK   48  A    between atoms: _111  and  _112
REMARK   49  A    between atoms: _115  and  _117
REMARK   50  A    between atoms: _117  and  _118
REMARK   51  A    between atoms: _121  and  _123
REMARK   52  A    between atoms: _123  and  _124
REMARK   53  A    between atoms: _123  and  _126
REMARK   54  A    between atoms: _129  and  _131
REMARK   55  A    between atoms: _131  and  _132
REMARK   56  A    between atoms: _135  and  _137
REMARK   57  A    between atoms: _137  and  _138
REMARK   58  A    between atoms: _137  and  _140
REMARK   59  A    between atoms: _143  and  _145
REMARK   60  A    between atoms: _145  and  _146
REMARK   61  A    between atoms: _145  and  _148
REMARK   62  A    between atoms: _148  and  _149
REMARK   63  A    between atoms: _149  and  _150
REMARK   64  A    between atoms: _150  and  _151
REMARK   65  A    between atoms: _151  and  _152
REMARK   66  A    between atoms: _156  and  _158
REMARK   67  A    between atoms: _158  and  _159
REMARK   68  A    between atoms: _158  and  _161
REMARK   69  A    between atoms: _161  and  _162
REMARK   70  A    between atoms: _165  and  _167
REMARK   71  A    between atoms: _167  and  _168
REMARK   72  A    between atoms: _167  and  _170
REMARK   73  A    between atoms: _173  and  _175
REMARK   74  A    between atoms: _175  and  _176
REMARK   75  A    between atoms: _175  and  _178
REMARK   76  A    between atoms: _178  and  _179
REMARK   77  A    between atoms: _179  and  _180
REMARK   78  A    between atoms: _183  and  _185
REMARK   79  A    between atoms: _185  and  _186
REMARK   80  A    between atoms: _185  and  _188
REMARK   81  A    between atoms: _188  and  _189
REMARK   82  A    between atoms: _194  and  _196
REMARK   83  A    between atoms: _196  and  _197
REMARK   84  A    between atoms: _196  and  _199
REMARK   85  A    between atoms: _202  and  _204
REMARK   86  A    between atoms: _204  and  _205
REMARK   87  A    between atoms: _204  and  _207
REMARK   88  A    between atoms: _207  and  _208
REMARK   89  A    between atoms: _208  and  _209
REMARK   90  A    between atoms: _209  and  _210
REMARK   91  A    between atoms: _210  and  _211
REMARK   92  A    between atoms: _215  and  _217
REMARK   93  A    between atoms: _217  and  _218
REMARK   94  A    between atoms: _217  and  _220
REMARK   95  A    between atoms: _220  and  _221
REMARK   96  A    between atoms: _226  and  _227
REMARK   97  A    between atoms: _229  and  _231
REMARK   98  A    between atoms: _231  and  _232
REMARK   99  A    between atoms: _231  and  _234
REMARK  100  A    between atoms: _234  and  _235
REMARK  101  A    between atoms: _238  and  _240
REMARK  102  A    between atoms: _240  and  _241
REMARK  103  A    between atoms: _240  and  _243
REMARK  104  A    between atoms: _243  and  _244
REMARK  105  A    between atoms: _250  and  _252
REMARK  106  A    between atoms: _252  and  _253
REMARK  107  A    between atoms: _252  and  _255
REMARK  108  A    between atoms: _255  and  _256
REMARK  109  A    between atoms: _259  and  _261
REMARK  110  A    between atoms: _261  and  _262
REMARK  111  A    between atoms: _261  and  _264
REMARK  112  A    between atoms: _264  and  _265
REMARK  113  A    between atoms: _265  and  _266
REMARK  114  A    between atoms: _269  and  _271
REMARK  115  A    between atoms: _271  and  _272
REMARK  116  A    between atoms: _271  and  _274
REMARK  117  A    between atoms: _274  and  _275
REMARK  118  A    between atoms: _280  and  _281
REMARK  119  A    between atoms: _283  and  _285
REMARK  120  A    between atoms: _285  and  _286
REMARK  121  A    between atoms: _285  and  _288
REMARK  122  A    between atoms: _290  and  _292
REMARK  123  A    between atoms: _292  and  _293
REMARK  124  A    between atoms: _292  and  _295
REMARK  125  A    between atoms: _295  and  _296
REMARK  126  A    between atoms: _298  and  _300
REMARK  127  A    between atoms: _300  and  _301
REMARK  128  A    between atoms: _303  and  _305
REMARK  129  A    between atoms: _305  and  _306
REMARK  130  A    between atoms: _308  and  _310
REMARK  131  A    between atoms: _310  and  _311
REMARK  132  A    between atoms: _310  and  _313
REMARK  133  A    between atoms: _313  and  _314
REMARK  134  A    between atoms: _314  and  _315
REMARK  135  A    between atoms: _318  and  _320
REMARK  136  A    between atoms: _320  and  _321
REMARK  137  A    between atoms: _320  and  _323
REMARK  138  A    between atoms: _323  and  _324
REMARK  139  A    between atoms: _327  and  _329
REMARK  140  A    between atoms: _329  and  _330
REMARK  141  A    between atoms: _329  and  _332
REMARK  142  A    between atoms: _332  and  _333
REMARK  143  A    between atoms: _339  and  _341
REMARK  144  A    between atoms: _341  and  _342
REMARK  145  A    between atoms: _341  and  _344
REMARK  146  A    between atoms: _344  and  _345
REMARK  147  A    between atoms: _348  and  _350
REMARK  148  A    between atoms: _350  and  _351
REMARK  149  A    between atoms: _350  and  _353
REMARK  150  A    between atoms: _353  and  _354
REMARK  151  A    between atoms: _359  and  _361
REMARK  152  A    between atoms: _361  and  _362
REMARK  153  A    between atoms: _361  and  _364
REMARK  154  A    between atoms: _364  and  _365
REMARK  155  A    between atoms: _368  and  _370
REMARK  156  A    between atoms: _370  and  _371
REMARK  157  A    between atoms: _370  and  _373
REMARK  158  A    between atoms: _373  and  _374
REMARK  159  A    between atoms: _374  and  _375
REMARK  160  A    between atoms: _375  and  _376
REMARK  161  A    between atoms: _376  and  _377
REMARK  162  A    between atoms: _382  and  _383
REMARK  163  A    between atoms: _388  and  _390
REMARK  164  A    between atoms: _390  and  _391
REMARK  165  A    between atoms: _390  and  _393
REMARK  166  A    between atoms: _393  and  _394
REMARK  167  A    between atoms: _394  and  _395
REMARK  168  A    between atoms: _398  and  _400
REMARK  169  A    between atoms: _400  and  _401
REMARK  170  A    between atoms: _400  and  _403
REMARK  171  A    between atoms: _403  and  _404
REMARK  172  A    between atoms: _409  and  _411
REMARK  173  A    between atoms: _411  and  _412
REMARK  174  A    between atoms: _411  and  _414
REMARK  175  A    between atoms: _414  and  _415
REMARK  176  A    between atoms: _418  and  _420
REMARK  177  A    between atoms: _420  and  _421
REMARK  178  A    between atoms: _420  and  _423
REMARK  179  A    between atoms: _423  and  _424
REMARK  180  A    between atoms: _427  and  _429
REMARK  181  A    between atoms: _429  and  _430
REMARK  182  A    between atoms: _429  and  _432
REMARK  183  A    between atoms: _432  and  _433
REMARK  184  A    between atoms: _436  and  _438
REMARK  185  A    between atoms: _438  and  _439
REMARK  186  A    between atoms: _438  and  _441
REMARK  187  A    between atoms: _441  and  _442
REMARK  188  A    between atoms: _445  and  _447
REMARK  189  A    between atoms: _447  and  _448
REMARK  190  A    between atoms: _447  and  _450
REMARK  191  A    between atoms: _450  and  _451
REMARK  192  A    between atoms: _451  and  _452
REMARK  193  A    between atoms: _452  and  _453
REMARK  194  A    between atoms: _453  and  _454
REMARK  195  A    between atoms: _458  and  _460
REMARK  196  A    between atoms: _460  and  _461
REMARK  197  A    between atoms: _460  and  _463
REMARK  198  A    between atoms: _463  and  _464
REMARK  199  A    between atoms: _467  and  _469
REMARK  200  A    between atoms: _469  and  _470
REMARK  201  A    between atoms: _469  and  _472
REMARK  202  A    between atoms: _472  and  _473
REMARK  203  A    between atoms: _475  and  _477
REMARK  204  A    between atoms: _477  and  _478
REMARK  205  A    between atoms: _477  and  _480
REMARK  206  A    between atoms: _480  and  _481
REMARK  207  A    between atoms: _484  and  _486
REMARK  208  A    between atoms: _486  and  _487
REMARK  209  A    between atoms: _486  and  _489
REMARK  210  A    between atoms: _489  and  _490
REMARK  211  A    between atoms: _496  and  _498
REMARK  212  A    between atoms: _498  and  _499
REMARK  213  A    between atoms: _501  and  _503
REMARK  214  A    between atoms: _503  and  _504
REMARK  215  A    between atoms: _503  and  _506
REMARK  216  A    between atoms: _506  and  _507
REMARK                            x       y       z     vdW  Elec       q    Type
REMARK                         _______ _______ _______ _____ _____    ______ ____
ROOT
ATOM      1  O   HOH     1      13.015   7.977  14.066  0.00  0.00    +0.000 OA
ENDROOT
TORSDOF 0
REMARK  Name = ../refined-set-2016/1nvr/1nvr_pocket.pdb
REMARK  216 active torsions:
REMARK  status: ('A' for Active; 'I' for Inactive)
REMARK    1  A    between atoms: _1  and  _3
REMARK    2  A    between atoms: _3  and  _4
REMARK    3  A    between atoms: _3  and  _6
REMARK    4  A    between atoms: _6  and  _7
REMARK    5  A    between atoms: _7  and  _8
REMARK    6  A    between atoms: _13  and  _15
REMARK    7  A    between atoms: _15  and  _16
REMARK    8  A    between atoms: _15  and  _18
REMARK    9  A    between atoms: _18  and  _19
REMARK   10  A    between atoms: _22  and  _24
REMARK   11  A    between atoms: _24  and  _25
REMARK   12  A    between atoms: _24  and  _27
REMARK   13  A    between atoms: _27  and  _28
REMARK   14  A    between atoms: _31  and  _33
REMARK   15  A    between atoms: _33  and  _34
REMARK   16  A    between atoms: _36  and  _38
REMARK   17  A    between atoms: _38  and  _39
REMARK   18  A    between atoms: _38  and  _41
REMARK   19  A    between atoms: _41  and  _42
REMARK   20  A    between atoms: _42  and  _43
REMARK   21  A    between atoms: _46  and  _48
REMARK   22  A    between atoms: _48  and  _49
REMARK   23  A    between atoms: _51  and  _53
REMARK   24  A    between atoms: _53  and  _54
REMARK   25  A    between atoms: _53  and  _56
REMARK   26  A    between atoms: _56  and  _57
REMARK   27  A    between atoms: _62  and  _63
REMARK   28  A    between atoms: _65  and  _67
REMARK   29  A    between atoms: _67  and  _68
REMARK   30  A    between atoms: _70  and  _72
REMARK   31  A    between atoms: _72  and  _73
REMARK   32  A    between atoms: _72  and  _75
REMARK   33  A    between atoms: _75  and  _76
REMARK   34  A    between atoms: _76  and  _77
REMARK   35  A    between atoms: _80  and  _82
REMARK   36  A    between atoms: _82  and  _83
REMARK   37  A    between atoms: _82  and  _85
REMARK   38  A    between atoms: _88  and  _90
REMARK   39  A    between atoms: _90  and  _91
REMARK   40  A    between atoms: _90  and  _93
REMARK   41  A    between atoms: _93  and  _94
REMARK   42  A    between atoms: _94  and  _95
REMARK   43  A    between atoms: _100  and  _102
REMARK   44  A    between atoms: _102  and  _103
REMARK   45  A    between atoms: _102  and  _105
REMARK   46  A    between atoms: _105  and  _106
REMARK   47  A    between atoms: _109  and  _111
REMARK   48  A    between atoms: _111  and  _112
REMARK   49  A    between atoms: _115  and  _117
REMARK   50  A    between atoms: _117  and  _118
REMARK   51  A    between atoms: _121  and  _123
REMARK   52  A    between atoms: _123  and  _124
REMARK   53  A    between atoms: _123  and  _126
REMARK   54  A    between atoms: _129  and  _131
REMARK   55  A    between atoms: _131  and  _132
REMARK   56  A    between atoms: _135  and  _137
REMARK   57  A    between atoms: _137  and  _138
REMARK   58  A    between atoms: _137  and  _140
REMARK   59  A    between atoms: _143  and  _145
REMARK   60  A    between atoms: _145  and  _146
REMARK   61  A    between atoms: _145  and  _148
REMARK   62  A    between atoms: _148  and  _149
REMARK   63  A    between atoms: _149  and  _150
REMARK   64  A    between atoms: _150  and  _151
REMARK   65  A    between atoms: _151  and  _152
REMARK   66  A    between atoms: _156  and  _158
REMARK   67  A    between atoms: _158  and  _159
REMARK   68  A    between atoms: _158  and  _161
REMARK   69  A    between atoms: _161  and  _162
REMARK   70  A    between atoms: _165  and  _167
REMARK   71  A    between atoms: _167  and  _168
REMARK   72  A    between atoms: _167  and  _170
REMARK   73  A    between atoms: _173  and  _175
REMARK   74  A    between atoms: _175  and  _176
REMARK   75  A    between atoms: _175  and  _178
REMARK   76  A    between atoms: _178  and  _179
REMARK   77  A    between atoms: _179  and  _180
REMARK   78  A    between atoms: _183  and  _185
REMARK   79  A    between atoms: _185  and  _186
REMARK   80  A    between atoms: _185  and  _188
REMARK   81  A    between atoms: _188  and  _189
REMARK   82  A    between atoms: _194  and  _196
REMARK   83  A    between atoms: _196  and  _197
REMARK   84  A    between atoms: _196  and  _199
REMARK   85  A    between atoms: _202  and  _204
REMARK   86  A    between atoms: _204  and  _205
REMARK   87  A    between atoms: _204  and  _207
REMARK   88  A    between atoms: _207  and  _208
REMARK   89  A    between atoms: _208  and  _209
REMARK   90  A    between atoms: _209  and  _210
REMARK   91  A    between atoms: _210  and  _211
REMARK   92  A    between atoms: _215  and  _217
REMARK   93  A    between atoms: _217  and  _218
REMARK   94  A    between atoms: _217  and  _220
REMARK   95  A    between atoms: _220  and  _221
REMARK   96  A    between atoms: _226  and  _227
REMARK   97  A    between atoms: _229  and  _231
REMARK   98  A    between atoms: _231  and  _232
REMARK   99  A    between atoms: _231  and  _234
REMARK  100  A    between atoms: _234  and  _235
REMARK  101  A    between atoms: _238  and  _240
REMARK  102  A    between atoms: _240  and  _241
REMARK  103  A    between atoms: _240  and  _243
REMARK  104  A    between atoms: _243  and  _244
REMARK  105  A    between atoms: _250  and  _252
REMARK  106  A    between atoms: _252  and  _253
REMARK  107  A    between atoms: _252  and  _255
REMARK  108  A    between atoms: _255  and  _256
REMARK  109  A    between atoms: _259  and  _261
REMARK  110  A    between atoms: _261  and  _262
REMARK  111  A    between atoms: _261  and  _264
REMARK  112  A    between atoms: _264  and  _265
REMARK  113  A    between atoms: _265  and  _266
REMARK  114  A    between atoms: _269  and  _271
REMARK  115  A    between atoms: _271  and  _272
REMARK  116  A    between atoms: _271  and  _274
REMARK  117  A    between atoms: _274  and  _275
REMARK  118  A    between atoms: _280  and  _281
REMARK  119  A    between atoms: _283  and  _285
REMARK  120  A    between atoms: _285  and  _286
REMARK  121  A    between atoms: _285  and  _288
REMARK  122  A    between atoms: _290  and  _292
REMARK  123  A    between atoms: _292  and  _293
REMARK  124  A    between atoms: _292  and  _295
REMARK  125  A    between atoms: _295  and  _296
REMARK  126  A    between atoms: _298  and  _300
REMARK  127  A    between atoms: _300  and  _301
REMARK  128  A    between atoms: _303  and  _305
REMARK  129  A    between atoms: _305  and  _306
REMARK  130  A    between atoms: _308  and  _310
REMARK  131  A    between atoms: _310  and  _311
REMARK  132  A    between atoms: _310  and  _313
REMARK  133  A    between atoms: _313  and  _314
REMARK  134  A    between atoms: _314  and  _315
REMARK  135  A    between atoms: _318  and  _320
REMARK  136  A    between atoms: _320  and  _321
REMARK  137  A    between atoms: _320  and  _323
REMARK  138  A    between atoms: _323  and  _324
REMARK  139  A    between atoms: _327  and  _329
REMARK  140  A    between atoms: _329  and  _330
REMARK  141  A    between atoms: _329  and  _332
REMARK  142  A    between atoms: _332  and  _333
REMARK  143  A    between atoms: _339  and  _341
REMARK  144  A    between atoms: _341  and  _342
REMARK  145  A    between atoms: _341  and  _344
REMARK  146  A    between atoms: _344  and  _345
REMARK  147  A    between atoms: _348  and  _350
REMARK  148  A    between atoms: _350  and  _351
REMARK  149  A    between atoms: _350  and  _353
REMARK  150  A    between atoms: _353  and  _354
REMARK  151  A    between atoms: _359  and  _361
REMARK  152  A    between atoms: _361  and  _362
REMARK  153  A    between atoms: _361  and  _364
REMARK  154  A    between atoms: _364  and  _365
REMARK  155  A    between atoms: _368  and  _370
REMARK  156  A    between atoms: _370  and  _371
REMARK  157  A    between atoms: _370  and  _373
REMARK  158  A    between atoms: _373  and  _374
REMARK  159  A    between atoms: _374  and  _375
REMARK  160  A    between atoms: _375  and  _376
REMARK  161  A    between atoms: _376  and  _377
REMARK  162  A    between atoms: _382  and  _383
REMARK  163  A    between atoms: _388  and  _390
REMARK  164  A    between atoms: _390  and  _391
REMARK  165  A    between atoms: _390  and  _393
REMARK  166  A    between atoms: _393  and  _394
REMARK  167  A    between atoms: _394  and  _395
REMARK  168  A    between atoms: _398  and  _400
REMARK  169  A    between atoms: _400  and  _401
REMARK  170  A    between atoms: _400  and  _403
REMARK  171  A    between atoms: _403  and  _404
REMARK  172  A    between atoms: _409  and  _411
REMARK  173  A    between atoms: _411  and  _412
REMARK  174  A    between atoms: _411  and  _414
REMARK  175  A    between atoms: _414  and  _415
REMARK  176  A    between atoms: _418  and  _420
REMARK  177  A    between atoms: _420  and  _421
REMARK  178  A    between atoms: _420  and  _423
REMARK  179  A    between atoms: _423  and  _424
REMARK  180  A    between atoms: _427  and  _429
REMARK  181  A    between atoms: _429  and  _430
REMARK  182  A    between atoms: _429  and  _432
REMARK  183  A    between atoms: _432  and  _433
REMARK  184  A    between atoms: _436  and  _438
REMARK  185  A    between atoms: _438  and  _439
REMARK  186  A    between atoms: _438  and  _441
REMARK  187  A    between atoms: _441  and  _442
REMARK  188  A    between atoms: _445  and  _447
REMARK  189  A    between atoms: _447  and  _448
REMARK  190  A    between atoms: _447  and  _450
REMARK  191  A    between atoms: _450  and  _451
REMARK  192  A    between atoms: _451  and  _452
REMARK  193  A    between atoms: _452  and  _453
REMARK  194  A    between atoms: _453  and  _454
REMARK  195  A    between atoms: _458  and  _460
REMARK  196  A    between atoms: _460  and  _461
REMARK  197  A    between atoms: _460  and  _463
REMARK  198  A    between atoms: _463  and  _464
REMARK  199  A    between atoms: _467  and  _469
REMARK  200  A    between atoms: _469  and  _470
REMARK  201  A    between atoms: _469  and  _472
REMARK  202  A    between atoms: _472  and  _473
REMARK  203  A    between atoms: _475  and  _477
REMARK  204  A    between atoms: _477  and  _478
REMARK  205  A    between atoms: _477  and  _480
REMARK  206  A    between atoms: _480  and  _481
REMARK  207  A    between atoms: _484  and  _486
REMARK  208  A    between atoms: _486  and  _487
REMARK  209  A    between atoms: _486  and  _489
REMARK  210  A    between atoms: _489  and  _490
REMARK  211  A    between atoms: _496  and  _498
REMARK  212  A    between atoms: _498  and  _499
REMARK  213  A    between atoms: _501  and  _503
REMARK  214  A    between atoms: _503  and  _504
REMARK  215  A    between atoms: _503  and  _506
REMARK  216  A    between atoms: _506  and  _507
REMARK                            x       y       z     vdW  Elec       q    Type
REMARK                         _______ _______ _______ _____ _____    ______ ____
ROOT
ATOM      1  O   HOH     1      12.195  12.020  15.022  0.00  0.00    +0.000 OA
ENDROOT
TORSDOF 0
REMARK  Name = ../refined-set-2016/1nvr/1nvr_pocket.pdb
REMARK  216 active torsions:
REMARK  status: ('A' for Active; 'I' for Inactive)
REMARK    1  A    between atoms: _1  and  _3
REMARK    2  A    between atoms: _3  and  _4
REMARK    3  A    between atoms: _3  and  _6
REMARK    4  A    between atoms: _6  and  _7
REMARK    5  A    between atoms: _7  and  _8
REMARK    6  A    between atoms: _13  and  _15
REMARK    7  A    between atoms: _15  and  _16
REMARK    8  A    between atoms: _15  and  _18
REMARK    9  A    between atoms: _18  and  _19
REMARK   10  A    between atoms: _22  and  _24
REMARK   11  A    between atoms: _24  and  _25
REMARK   12  A    between atoms: _24  and  _27
REMARK   13  A    between atoms: _27  and  _28
REMARK   14  A    between atoms: _31  and  _33
REMARK   15  A    between atoms: _33  and  _34
REMARK   16  A    between atoms: _36  and  _38
REMARK   17  A    between atoms: _38  and  _39
REMARK   18  A    between atoms: _38  and  _41
REMARK   19  A    between atoms: _41  and  _42
REMARK   20  A    between atoms: _42  and  _43
REMARK   21  A    between atoms: _46  and  _48
REMARK   22  A    between atoms: _48  and  _49
REMARK   23  A    between atoms: _51  and  _53
REMARK   24  A    between atoms: _53  and  _54
REMARK   25  A    between atoms: _53  and  _56
REMARK   26  A    between atoms: _56  and  _57
REMARK   27  A    between atoms: _62  and  _63
REMARK   28  A    between atoms: _65  and  _67
REMARK   29  A    between atoms: _67  and  _68
REMARK   30  A    between atoms: _70  and  _72
REMARK   31  A    between atoms: _72  and  _73
REMARK   32  A    between atoms: _72  and  _75
REMARK   33  A    between atoms: _75  and  _76
REMARK   34  A    between atoms: _76  and  _77
REMARK   35  A    between atoms: _80  and  _82
REMARK   36  A    between atoms: _82  and  _83
REMARK   37  A    between atoms: _82  and  _85
REMARK   38  A    between atoms: _88  and  _90
REMARK   39  A    between atoms: _90  and  _91
REMARK   40  A    between atoms: _90  and  _93
REMARK   41  A    between atoms: _93  and  _94
REMARK   42  A    between atoms: _94  and  _95
REMARK   43  A    between atoms: _100  and  _102
REMARK   44  A    between atoms: _102  and  _103
REMARK   45  A    between atoms: _102  and  _105
REMARK   46  A    between atoms: _105  and  _106
REMARK   47  A    between atoms: _109  and  _111
REMARK   48  A    between atoms: _111  and  _112
REMARK   49  A    between atoms: _115  and  _117
REMARK   50  A    between atoms: _117  and  _118
REMARK   51  A    between atoms: _121  and  _123
REMARK   52  A    between atoms: _123  and  _124
REMARK   53  A    between atoms: _123  and  _126
REMARK   54  A    between atoms: _129  and  _131
REMARK   55  A    between atoms: _131  and  _132
REMARK   56  A    between atoms: _135  and  _137
REMARK   57  A    between atoms: _137  and  _138
REMARK   58  A    between atoms: _137  and  _140
REMARK   59  A    between atoms: _143  and  _145
REMARK   60  A    between atoms: _145  and  _146
REMARK   61  A    between atoms: _145  and  _148
REMARK   62  A    between atoms: _148  and  _149
REMARK   63  A    between atoms: _149  and  _150
REMARK   64  A    between atoms: _150  and  _151
REMARK   65  A    between atoms: _151  and  _152
REMARK   66  A    between atoms: _156  and  _158
REMARK   67  A    between atoms: _158  and  _159
REMARK   68  A    between atoms: _158  and  _161
REMARK   69  A    between atoms: _161  and  _162
REMARK   70  A    between atoms: _165  and  _167
REMARK   71  A    between atoms: _167  and  _168
REMARK   72  A    between atoms: _167  and  _170
REMARK   73  A    between atoms: _173  and  _175
REMARK   74  A    between atoms: _175  and  _176
REMARK   75  A    between atoms: _175  and  _178
REMARK   76  A    between atoms: _178  and  _179
REMARK   77  A    between atoms: _179  and  _180
REMARK   78  A    between atoms: _183  and  _185
REMARK   79  A    between atoms: _185  and  _186
REMARK   80  A    between atoms: _185  and  _188
REMARK   81  A    between atoms: _188  and  _189
REMARK   82  A    between atoms: _194  and  _196
REMARK   83  A    between atoms: _196  and  _197
REMARK   84  A    between atoms: _196  and  _199
REMARK   85  A    between atoms: _202  and  _204
REMARK   86  A    between atoms: _204  and  _205
REMARK   87  A    between atoms: _204  and  _207
REMARK   88  A    between atoms: _207  and  _208
REMARK   89  A    between atoms: _208  and  _209
REMARK   90  A    between atoms: _209  and  _210
REMARK   91  A    between atoms: _210  and  _211
REMARK   92  A    between atoms: _215  and  _217
REMARK   93  A    between atoms: _217  and  _218
REMARK   94  A    between atoms: _217  and  _220
REMARK   95  A    between atoms: _220  and  _221
REMARK   96  A    between atoms: _226  and  _227
REMARK   97  A    between atoms: _229  and  _231
REMARK   98  A    between atoms: _231  and  _232
REMARK   99  A    between atoms: _231  and  _234
REMARK  100  A    between atoms: _234  and  _235
REMARK  101  A    between atoms: _238  and  _240
REMARK  102  A    between atoms: _240  and  _241
REMARK  103  A    between atoms: _240  and  _243
REMARK  104  A    between atoms: _243  and  _244
REMARK  105  A    between atoms: _250  and  _252
REMARK  106  A    between atoms: _252  and  _253
REMARK  107  A    between atoms: _252  and  _255
REMARK  108  A    between atoms: _255  and  _256
REMARK  109  A    between atoms: _259  and  _261
REMARK  110  A    between atoms: _261  and  _262
REMARK  111  A    between atoms: _261  and  _264
REMARK  112  A    between atoms: _264  and  _265
REMARK  113  A    between atoms: _265  and  _266
REMARK  114  A    between atoms: _269  and  _271
REMARK  115  A    between atoms: _271  and  _272
REMARK  116  A    between atoms: _271  and  _274
REMARK  117  A    between atoms: _274  and  _275
REMARK  118  A    between atoms: _280  and  _281
REMARK  119  A    between atoms: _283  and  _285
REMARK  120  A    between atoms: _285  and  _286
REMARK  121  A    between atoms: _285  and  _288
REMARK  122  A    between atoms: _290  and  _292
REMARK  123  A    between atoms: _292  and  _293
REMARK  124  A    between atoms: _292  and  _295
REMARK  125  A    between atoms: _295  and  _296
REMARK  126  A    between atoms: _298  and  _300
REMARK  127  A    between atoms: _300  and  _301
REMARK  128  A    between atoms: _303  and  _305
REMARK  129  A    between atoms: _305  and  _306
REMARK  130  A    between atoms: _308  and  _310
REMARK  131  A    between atoms: _310  and  _311
REMARK  132  A    between atoms: _310  and  _313
REMARK  133  A    between atoms: _313  and  _314
REMARK  134  A    between atoms: _314  and  _315
REMARK  135  A    between atoms: _318  and  _320
REMARK  136  A    between atoms: _320  and  _321
REMARK  137  A    between atoms: _320  and  _323
REMARK  138  A    between atoms: _323  and  _324
REMARK  139  A    between atoms: _327  and  _329
REMARK  140  A    between atoms: _329  and  _330
REMARK  141  A    between atoms: _329  and  _332
REMARK  142  A    between atoms: _332  and  _333
REMARK  143  A    between atoms: _339  and  _341
REMARK  144  A    between atoms: _341  and  _342
REMARK  145  A    between atoms: _341  and  _344
REMARK  146  A    between atoms: _344  and  _345
REMARK  147  A    between atoms: _348  and  _350
REMARK  148  A    between atoms: _350  and  _351
REMARK  149  A    between atoms: _350  and  _353
REMARK  150  A    between atoms: _353  and  _354
REMARK  151  A    between atoms: _359  and  _361
REMARK  152  A    between atoms: _361  and  _362
REMARK  153  A    between atoms: _361  and  _364
REMARK  154  A    between atoms: _364  and  _365
REMARK  155  A    between atoms: _368  and  _370
REMARK  156  A    between atoms: _370  and  _371
REMARK  157  A    between atoms: _370  and  _373
REMARK  158  A    between atoms: _373  and  _374
REMARK  159  A    between atoms: _374  and  _375
REMARK  160  A    between atoms: _375  and  _376
REMARK  161  A    between atoms: _376  and  _377
REMARK  162  A    between atoms: _382  and  _383
REMARK  163  A    between atoms: _388  and  _390
REMARK  164  A    between atoms: _390  and  _391
REMARK  165  A    between atoms: _390  and  _393
REMARK  166  A    between atoms: _393  and  _394
REMARK  167  A    between atoms: _394  and  _395
REMARK  168  A    between atoms: _398  and  _400
REMARK  169  A    between atoms: _400  and  _401
REMARK  170  A    between atoms: _400  and  _403
REMARK  171  A    between atoms: _403  and  _404
REMARK  172  A    between atoms: _409  and  _411
REMARK  173  A    between atoms: _411  and  _412
REMARK  174  A    between atoms: _411  and  _414
REMARK  175  A    between atoms: _414  and  _415
REMARK  176  A    between atoms: _418  and  _420
REMARK  177  A    between atoms: _420  and  _421
REMARK  178  A    between atoms: _420  and  _423
REMARK  179  A    between atoms: _423  and  _424
REMARK  180  A    between atoms: _427  and  _429
REMARK  181  A    between atoms: _429  and  _430
REMARK  182  A    between atoms: _429  and  _432
REMARK  183  A    between atoms: _432  and  _433
REMARK  184  A    between atoms: _436  and  _438
REMARK  185  A    between atoms: _438  and  _439
REMARK  186  A    between atoms: _438  and  _441
REMARK  187  A    between atoms: _441  and  _442
REMARK  188  A    between atoms: _445  and  _447
REMARK  189  A    between atoms: _447  and  _448
REMARK  190  A    between atoms: _447  and  _450
REMARK  191  A    between atoms: _450  and  _451
REMARK  192  A    between atoms: _451  and  _452
REMARK  193  A    between atoms: _452  and  _453
REMARK  194  A    between atoms: _453  and  _454
REMARK  195  A    between atoms: _458  and  _460
REMARK  196  A    between atoms: _460  and  _461
REMARK  197  A    between atoms: _460  and  _463
REMARK  198  A    between atoms: _463  and  _464
REMARK  199  A    between atoms: _467  and  _469
REMARK  200  A    between atoms: _469  and  _470
REMARK  201  A    between atoms: _469  and  _472
REMARK  202  A    between atoms: _472  and  _473
REMARK  203  A    between atoms: _475  and  _477
REMARK  204  A    between atoms: _477  and  _478
REMARK  205  A    between atoms: _477  and  _480
REMARK  206  A    between atoms: _480  and  _481
REMARK  207  A    between atoms: _484  and  _486
REMARK  208  A    between atoms: _486  and  _487
REMARK  209  A    between atoms: _486  and  _489
REMARK  210  A    between atoms: _489  and  _490
REMARK  211  A    between atoms: _496  and  _498
REMARK  212  A    between atoms: _498  and  _499
REMARK  213  A    between atoms: _501  and  _503
REMARK  214  A    between atoms: _503  and  _504
REMARK  215  A    between atoms: _503  and  _506
REMARK  216  A    between atoms: _506  and  _507
REMARK                            x       y       z     vdW  Elec       q    Type
REMARK                         _______ _______ _______ _____ _____    ______ ____
ROOT
ATOM      1  O   HOH     1       7.344  15.103  24.733  0.00  0.00    +0.000 OA
ENDROOT
TORSDOF 0
REMARK  Name = ../refined-set-2016/1nvr/1nvr_pocket.pdb
REMARK  216 active torsions:
REMARK  status: ('A' for Active; 'I' for Inactive)
REMARK    1  A    between atoms: _1  and  _3
REMARK    2  A    between atoms: _3  and  _4
REMARK    3  A    between atoms: _3  and  _6
REMARK    4  A    between atoms: _6  and  _7
REMARK    5  A    between atoms: _7  and  _8
REMARK    6  A    between atoms: _13  and  _15
REMARK    7  A    between atoms: _15  and  _16
REMARK    8  A    between atoms: _15  and  _18
REMARK    9  A    between atoms: _18  and  _19
REMARK   10  A    between atoms: _22  and  _24
REMARK   11  A    between atoms: _24  and  _25
REMARK   12  A    between atoms: _24  and  _27
REMARK   13  A    between atoms: _27  and  _28
REMARK   14  A    between atoms: _31  and  _33
REMARK   15  A    between atoms: _33  and  _34
REMARK   16  A    between atoms: _36  and  _38
REMARK   17  A    between atoms: _38  and  _39
REMARK   18  A    between atoms: _38  and  _41
REMARK   19  A    between atoms: _41  and  _42
REMARK   20  A    between atoms: _42  and  _43
REMARK   21  A    between atoms: _46  and  _48
REMARK   22  A    between atoms: _48  and  _49
REMARK   23  A    between atoms: _51  and  _53
REMARK   24  A    between atoms: _53  and  _54
REMARK   25  A    between atoms: _53  and  _56
REMARK   26  A    between atoms: _56  and  _57
REMARK   27  A    between atoms: _62  and  _63
REMARK   28  A    between atoms: _65  and  _67
REMARK   29  A    between atoms: _67  and  _68
REMARK   30  A    between atoms: _70  and  _72
REMARK   31  A    between atoms: _72  and  _73
REMARK   32  A    between atoms: _72  and  _75
REMARK   33  A    between atoms: _75  and  _76
REMARK   34  A    between atoms: _76  and  _77
REMARK   35  A    between atoms: _80  and  _82
REMARK   36  A    between atoms: _82  and  _83
REMARK   37  A    between atoms: _82  and  _85
REMARK   38  A    between atoms: _88  and  _90
REMARK   39  A    between atoms: _90  and  _91
REMARK   40  A    between atoms: _90  and  _93
REMARK   41  A    between atoms: _93  and  _94
REMARK   42  A    between atoms: _94  and  _95
REMARK   43  A    between atoms: _100  and  _102
REMARK   44  A    between atoms: _102  and  _103
REMARK   45  A    between atoms: _102  and  _105
REMARK   46  A    between atoms: _105  and  _106
REMARK   47  A    between atoms: _109  and  _111
REMARK   48  A    between atoms: _111  and  _112
REMARK   49  A    between atoms: _115  and  _117
REMARK   50  A    between atoms: _117  and  _118
REMARK   51  A    between atoms: _121  and  _123
REMARK   52  A    between atoms: _123  and  _124
REMARK   53  A    between atoms: _123  and  _126
REMARK   54  A    between atoms: _129  and  _131
REMARK   55  A    between atoms: _131  and  _132
REMARK   56  A    between atoms: _135  and  _137
REMARK   57  A    between atoms: _137  and  _138
REMARK   58  A    between atoms: _137  and  _140
REMARK   59  A    between atoms: _143  and  _145
REMARK   60  A    between atoms: _145  and  _146
REMARK   61  A    between atoms: _145  and  _148
REMARK   62  A    between atoms: _148  and  _149
REMARK   63  A    between atoms: _149  and  _150
REMARK   64  A    between atoms: _150  and  _151
REMARK   65  A    between atoms: _151  and  _152
REMARK   66  A    between atoms: _156  and  _158
REMARK   67  A    between atoms: _158  and  _159
REMARK   68  A    between atoms: _158  and  _161
REMARK   69  A    between atoms: _161  and  _162
REMARK   70  A    between atoms: _165  and  _167
REMARK   71  A    between atoms: _167  and  _168
REMARK   72  A    between atoms: _167  and  _170
REMARK   73  A    between atoms: _173  and  _175
REMARK   74  A    between atoms: _175  and  _176
REMARK   75  A    between atoms: _175  and  _178
REMARK   76  A    between atoms: _178  and  _179
REMARK   77  A    between atoms: _179  and  _180
REMARK   78  A    between atoms: _183  and  _185
REMARK   79  A    between atoms: _185  and  _186
REMARK   80  A    between atoms: _185  and  _188
REMARK   81  A    between atoms: _188  and  _189
REMARK   82  A    between atoms: _194  and  _196
REMARK   83  A    between atoms: _196  and  _197
REMARK   84  A    between atoms: _196  and  _199
REMARK   85  A    between atoms: _202  and  _204
REMARK   86  A    between atoms: _204  and  _205
REMARK   87  A    between atoms: _204  and  _207
REMARK   88  A    between atoms: _207  and  _208
REMARK   89  A    between atoms: _208  and  _209
REMARK   90  A    between atoms: _209  and  _210
REMARK   91  A    between atoms: _210  and  _211
REMARK   92  A    between atoms: _215  and  _217
REMARK   93  A    between atoms: _217  and  _218
REMARK   94  A    between atoms: _217  and  _220
REMARK   95  A    between atoms: _220  and  _221
REMARK   96  A    between atoms: _226  and  _227
REMARK   97  A    between atoms: _229  and  _231
REMARK   98  A    between atoms: _231  and  _232
REMARK   99  A    between atoms: _231  and  _234
REMARK  100  A    between atoms: _234  and  _235
REMARK  101  A    between atoms: _238  and  _240
REMARK  102  A    between atoms: _240  and  _241
REMARK  103  A    between atoms: _240  and  _243
REMARK  104  A    between atoms: _243  and  _244
REMARK  105  A    between atoms: _250  and  _252
REMARK  106  A    between atoms: _252  and  _253
REMARK  107  A    between atoms: _252  and  _255
REMARK  108  A    between atoms: _255  and  _256
REMARK  109  A    between atoms: _259  and  _261
REMARK  110  A    between atoms: _261  and  _262
REMARK  111  A    between atoms: _261  and  _264
REMARK  112  A    between atoms: _264  and  _265
REMARK  113  A    between atoms: _265  and  _266
REMARK  114  A    between atoms: _269  and  _271
REMARK  115  A    between atoms: _271  and  _272
REMARK  116  A    between atoms: _271  and  _274
REMARK  117  A    between atoms: _274  and  _275
REMARK  118  A    between atoms: _280  and  _281
REMARK  119  A    between atoms: _283  and  _285
REMARK  120  A    between atoms: _285  and  _286
REMARK  121  A    between atoms: _285  and  _288
REMARK  122  A    between atoms: _290  and  _292
REMARK  123  A    between atoms: _292  and  _293
REMARK  124  A    between atoms: _292  and  _295
REMARK  125  A    between atoms: _295  and  _296
REMARK  126  A    between atoms: _298  and  _300
REMARK  127  A    between atoms: _300  and  _301
REMARK  128  A    between atoms: _303  and  _305
REMARK  129  A    between atoms: _305  and  _306
REMARK  130  A    between atoms: _308  and  _310
REMARK  131  A    between atoms: _310  and  _311
REMARK  132  A    between atoms: _310  and  _313
REMARK  133  A    between atoms: _313  and  _314
REMARK  134  A    between atoms: _314  and  _315
REMARK  135  A    between atoms: _318  and  _320
REMARK  136  A    between atoms: _320  and  _321
REMARK  137  A    between atoms: _320  and  _323
REMARK  138  A    between atoms: _323  and  _324
REMARK  139  A    between atoms: _327  and  _329
REMARK  140  A    between atoms: _329  and  _330
REMARK  141  A    between atoms: _329  and  _332
REMARK  142  A    between atoms: _332  and  _333
REMARK  143  A    between atoms: _339  and  _341
REMARK  144  A    between atoms: _341  and  _342
REMARK  145  A    between atoms: _341  and  _344
REMARK  146  A    between atoms: _344  and  _345
REMARK  147  A    between atoms: _348  and  _350
REMARK  148  A    between atoms: _350  and  _351
REMARK  149  A    between atoms: _350  and  _353
REMARK  150  A    between atoms: _353  and  _354
REMARK  151  A    between atoms: _359  and  _361
REMARK  152  A    between atoms: _361  and  _362
REMARK  153  A    between atoms: _361  and  _364
REMARK  154  A    between atoms: _364  and  _365
REMARK  155  A    between atoms: _368  and  _370
REMARK  156  A    between atoms: _370  and  _371
REMARK  157  A    between atoms: _370  and  _373
REMARK  158  A    between atoms: _373  and  _374
REMARK  159  A    between atoms: _374  and  _375
REMARK  160  A    between atoms: _375  and  _376
REMARK  161  A    between atoms: _376  and  _377
REMARK  162  A    between atoms: _382  and  _383
REMARK  163  A    between atoms: _388  and  _390
REMARK  164  A    between atoms: _390  and  _391
REMARK  165  A    between atoms: _390  and  _393
REMARK  166  A    between atoms: _393  and  _394
REMARK  167  A    between atoms: _394  and  _395
REMARK  168  A    between atoms: _398  and  _400
REMARK  169  A    between atoms: _400  and  _401
REMARK  170  A    between atoms: _400  and  _403
REMARK  171  A    between atoms: _403  and  _404
REMARK  172  A    between atoms: _409  and  _411
REMARK  173  A    between atoms: _411  and  _412
REMARK  174  A    between atoms: _411  and  _414
REMARK  175  A    between atoms: _414  and  _415
REMARK  176  A    between atoms: _418  and  _420
REMARK  177  A    between atoms: _420  and  _421
REMARK  178  A    between atoms: _420  and  _423
REMARK  179  A    between atoms: _423  and  _424
REMARK  180  A    between atoms: _427  and  _429
REMARK  181  A    between atoms: _429  and  _430
REMARK  182  A    between atoms: _429  and  _432
REMARK  183  A    between atoms: _432  and  _433
REMARK  184  A    between atoms: _436  and  _438
REMARK  185  A    between atoms: _438  and  _439
REMARK  186  A    between atoms: _438  and  _441
REMARK  187  A    between atoms: _441  and  _442
REMARK  188  A    between atoms: _445  and  _447
REMARK  189  A    between atoms: _447  and  _448
REMARK  190  A    between atoms: _447  and  _450
REMARK  191  A    between atoms: _450  and  _451
REMARK  192  A    between atoms: _451  and  _452
REMARK  193  A    between atoms: _452  and  _453
REMARK  194  A    between atoms: _453  and  _454
REMARK  195  A    between atoms: _458  and  _460
REMARK  196  A    between atoms: _460  and  _461
REMARK  197  A    between atoms: _460  and  _463
REMARK  198  A    between atoms: _463  and  _464
REMARK  199  A    between atoms: _467  and  _469
REMARK  200  A    between atoms: _469  and  _470
REMARK  201  A    between atoms: _469  and  _472
REMARK  202  A    between atoms: _472  and  _473
REMARK  203  A    between atoms: _475  and  _477
REMARK  204  A    between atoms: _477  and  _478
REMARK  205  A    between atoms: _477  and  _480
REMARK  206  A    between atoms: _480  and  _481
REMARK  207  A    between atoms: _484  and  _486
REMARK  208  A    between atoms: _486  and  _487
REMARK  209  A    between atoms: _486  and  _489
REMARK  210  A    between atoms: _489  and  _490
REMARK  211  A    between atoms: _496  and  _498
REMARK  212  A    between atoms: _498  and  _499
REMARK  213  A    between atoms: _501  and  _503
REMARK  214  A    between atoms: _503  and  _504
REMARK  215  A    between atoms: _503  and  _506
REMARK  216  A    between atoms: _506  and  _507
REMARK                            x       y       z     vdW  Elec       q    Type
REMARK                         _______ _______ _______ _____ _____    ______ ____
ROOT
ATOM      1  O   HOH     1       1.686  16.006  22.450  0.00  0.00    +0.000 OA
ENDROOT
TORSDOF 0
REMARK  Name = ../refined-set-2016/1nvr/1nvr_pocket.pdb
REMARK  216 active torsions:
REMARK  status: ('A' for Active; 'I' for Inactive)
REMARK    1  A    between atoms: _1  and  _3
REMARK    2  A    between atoms: _3  and  _4
REMARK    3  A    between atoms: _3  and  _6
REMARK    4  A    between atoms: _6  and  _7
REMARK    5  A    between atoms: _7  and  _8
REMARK    6  A    between atoms: _13  and  _15
REMARK    7  A    between atoms: _15  and  _16
REMARK    8  A    between atoms: _15  and  _18
REMARK    9  A    between atoms: _18  and  _19
REMARK   10  A    between atoms: _22  and  _24
REMARK   11  A    between atoms: _24  and  _25
REMARK   12  A    between atoms: _24  and  _27
REMARK   13  A    between atoms: _27  and  _28
REMARK   14  A    between atoms: _31  and  _33
REMARK   15  A    between atoms: _33  and  _34
REMARK   16  A    between atoms: _36  and  _38
REMARK   17  A    between atoms: _38  and  _39
REMARK   18  A    between atoms: _38  and  _41
REMARK   19  A    between atoms: _41  and  _42
REMARK   20  A    between atoms: _42  and  _43
REMARK   21  A    between atoms: _46  and  _48
REMARK   22  A    between atoms: _48  and  _49
REMARK   23  A    between atoms: _51  and  _53
REMARK   24  A    between atoms: _53  and  _54
REMARK   25  A    between atoms: _53  and  _56
REMARK   26  A    between atoms: _56  and  _57
REMARK   27  A    between atoms: _62  and  _63
REMARK   28  A    between atoms: _65  and  _67
REMARK   29  A    between atoms: _67  and  _68
REMARK   30  A    between atoms: _70  and  _72
REMARK   31  A    between atoms: _72  and  _73
REMARK   32  A    between atoms: _72  and  _75
REMARK   33  A    between atoms: _75  and  _76
REMARK   34  A    between atoms: _76  and  _77
REMARK   35  A    between atoms: _80  and  _82
REMARK   36  A    between atoms: _82  and  _83
REMARK   37  A    between atoms: _82  and  _85
REMARK   38  A    between atoms: _88  and  _90
REMARK   39  A    between atoms: _90  and  _91
REMARK   40  A    between atoms: _90  and  _93
REMARK   41  A    between atoms: _93  and  _94
REMARK   42  A    between atoms: _94  and  _95
REMARK   43  A    between atoms: _100  and  _102
REMARK   44  A    between atoms: _102  and  _103
REMARK   45  A    between atoms: _102  and  _105
REMARK   46  A    between atoms: _105  and  _106
REMARK   47  A    between atoms: _109  and  _111
REMARK   48  A    between atoms: _111  and  _112
REMARK   49  A    between atoms: _115  and  _117
REMARK   50  A    between atoms: _117  and  _118
REMARK   51  A    between atoms: _121  and  _123
REMARK   52  A    between atoms: _123  and  _124
REMARK   53  A    between atoms: _123  and  _126
REMARK   54  A    between atoms: _129  and  _131
REMARK   55  A    between atoms: _131  and  _132
REMARK   56  A    between atoms: _135  and  _137
REMARK   57  A    between atoms: _137  and  _138
REMARK   58  A    between atoms: _137  and  _140
REMARK   59  A    between atoms: _143  and  _145
REMARK   60  A    between atoms: _145  and  _146
REMARK   61  A    between atoms: _145  and  _148
REMARK   62  A    between atoms: _148  and  _149
REMARK   63  A    between atoms: _149  and  _150
REMARK   64  A    between atoms: _150  and  _151
REMARK   65  A    between atoms: _151  and  _152
REMARK   66  A    between atoms: _156  and  _158
REMARK   67  A    between atoms: _158  and  _159
REMARK   68  A    between atoms: _158  and  _161
REMARK   69  A    between atoms: _161  and  _162
REMARK   70  A    between atoms: _165  and  _167
REMARK   71  A    between atoms: _167  and  _168
REMARK   72  A    between atoms: _167  and  _170
REMARK   73  A    between atoms: _173  and  _175
REMARK   74  A    between atoms: _175  and  _176
REMARK   75  A    between atoms: _175  and  _178
REMARK   76  A    between atoms: _178  and  _179
REMARK   77  A    between atoms: _179  and  _180
REMARK   78  A    between atoms: _183  and  _185
REMARK   79  A    between atoms: _185  and  _186
REMARK   80  A    between atoms: _185  and  _188
REMARK   81  A    between atoms: _188  and  _189
REMARK   82  A    between atoms: _194  and  _196
REMARK   83  A    between atoms: _196  and  _197
REMARK   84  A    between atoms: _196  and  _199
REMARK   85  A    between atoms: _202  and  _204
REMARK   86  A    between atoms: _204  and  _205
REMARK   87  A    between atoms: _204  and  _207
REMARK   88  A    between atoms: _207  and  _208
REMARK   89  A    between atoms: _208  and  _209
REMARK   90  A    between atoms: _209  and  _210
REMARK   91  A    between atoms: _210  and  _211
REMARK   92  A    between atoms: _215  and  _217
REMARK   93  A    between atoms: _217  and  _218
REMARK   94  A    between atoms: _217  and  _220
REMARK   95  A    between atoms: _220  and  _221
REMARK   96  A    between atoms: _226  and  _227
REMARK   97  A    between atoms: _229  and  _231
REMARK   98  A    between atoms: _231  and  _232
REMARK   99  A    between atoms: _231  and  _234
REMARK  100  A    between atoms: _234  and  _235
REMARK  101  A    between atoms: _238  and  _240
REMARK  102  A    between atoms: _240  and  _241
REMARK  103  A    between atoms: _240  and  _243
REMARK  104  A    between atoms: _243  and  _244
REMARK  105  A    between atoms: _250  and  _252
REMARK  106  A    between atoms: _252  and  _253
REMARK  107  A    between atoms: _252  and  _255
REMARK  108  A    between atoms: _255  and  _256
REMARK  109  A    between atoms: _259  and  _261
REMARK  110  A    between atoms: _261  and  _262
REMARK  111  A    between atoms: _261  and  _264
REMARK  112  A    between atoms: _264  and  _265
REMARK  113  A    between atoms: _265  and  _266
REMARK  114  A    between atoms: _269  and  _271
REMARK  115  A    between atoms: _271  and  _272
REMARK  116  A    between atoms: _271  and  _274
REMARK  117  A    between atoms: _274  and  _275
REMARK  118  A    between atoms: _280  and  _281
REMARK  119  A    between atoms: _283  and  _285
REMARK  120  A    between atoms: _285  and  _286
REMARK  121  A    between atoms: _285  and  _288
REMARK  122  A    between atoms: _290  and  _292
REMARK  123  A    between atoms: _292  and  _293
REMARK  124  A    between atoms: _292  and  _295
REMARK  125  A    between atoms: _295  and  _296
REMARK  126  A    between atoms: _298  and  _300
REMARK  127  A    between atoms: _300  and  _301
REMARK  128  A    between atoms: _303  and  _305
REMARK  129  A    between atoms: _305  and  _306
REMARK  130  A    between atoms: _308  and  _310
REMARK  131  A    between atoms: _310  and  _311
REMARK  132  A    between atoms: _310  and  _313
REMARK  133  A    between atoms: _313  and  _314
REMARK  134  A    between atoms: _314  and  _315
REMARK  135  A    between atoms: _318  and  _320
REMARK  136  A    between atoms: _320  and  _321
REMARK  137  A    between atoms: _320  and  _323
REMARK  138  A    between atoms: _323  and  _324
REMARK  139  A    between atoms: _327  and  _329
REMARK  140  A    between atoms: _329  and  _330
REMARK  141  A    between atoms: _329  and  _332
REMARK  142  A    between atoms: _332  and  _333
REMARK  143  A    between atoms: _339  and  _341
REMARK  144  A    between atoms: _341  and  _342
REMARK  145  A    between atoms: _341  and  _344
REMARK  146  A    between atoms: _344  and  _345
REMARK  147  A    between atoms: _348  and  _350
REMARK  148  A    between atoms: _350  and  _351
REMARK  149  A    between atoms: _350  and  _353
REMARK  150  A    between atoms: _353  and  _354
REMARK  151  A    between atoms: _359  and  _361
REMARK  152  A    between atoms: _361  and  _362
REMARK  153  A    between atoms: _361  and  _364
REMARK  154  A    between atoms: _364  and  _365
REMARK  155  A    between atoms: _368  and  _370
REMARK  156  A    between atoms: _370  and  _371
REMARK  157  A    between atoms: _370  and  _373
REMARK  158  A    between atoms: _373  and  _374
REMARK  159  A    between atoms: _374  and  _375
REMARK  160  A    between atoms: _375  and  _376
REMARK  161  A    between atoms: _376  and  _377
REMARK  162  A    between atoms: _382  and  _383
REMARK  163  A    between atoms: _388  and  _390
REMARK  164  A    between atoms: _390  and  _391
REMARK  165  A    between atoms: _390  and  _393
REMARK  166  A    between atoms: _393  and  _394
REMARK  167  A    between atoms: _394  and  _395
REMARK  168  A    between atoms: _398  and  _400
REMARK  169  A    between atoms: _400  and  _401
REMARK  170  A    between atoms: _400  and  _403
REMARK  171  A    between atoms: _403  and  _404
REMARK  172  A    between atoms: _409  and  _411
REMARK  173  A    between atoms: _411  and  _412
REMARK  174  A    between atoms: _411  and  _414
REMARK  175  A    between atoms: _414  and  _415
REMARK  176  A    between atoms: _418  and  _420
REMARK  177  A    between atoms: _420  and  _421
REMARK  178  A    between atoms: _420  and  _423
REMARK  179  A    between atoms: _423  and  _424
REMARK  180  A    between atoms: _427  and  _429
REMARK  181  A    between atoms: _429  and  _430
REMARK  182  A    between atoms: _429  and  _432
REMARK  183  A    between atoms: _432  and  _433
REMARK  184  A    between atoms: _436  and  _438
REMARK  185  A    between atoms: _438  and  _439
REMARK  186  A    between atoms: _438  and  _441
REMARK  187  A    between atoms: _441  and  _442
REMARK  188  A    between atoms: _445  and  _447
REMARK  189  A    between atoms: _447  and  _448
REMARK  190  A    between atoms: _447  and  _450
REMARK  191  A    between atoms: _450  and  _451
REMARK  192  A    between atoms: _451  and  _452
REMARK  193  A    between atoms: _452  and  _453
REMARK  194  A    between atoms: _453  and  _454
REMARK  195  A    between atoms: _458  and  _460
REMARK  196  A    between atoms: _460  and  _461
REMARK  197  A    between atoms: _460  and  _463
REMARK  198  A    between atoms: _463  and  _464
REMARK  199  A    between atoms: _467  and  _469
REMARK  200  A    between atoms: _469  and  _470
REMARK  201  A    between atoms: _469  and  _472
REMARK  202  A    between atoms: _472  and  _473
REMARK  203  A    between atoms: _475  and  _477
REMARK  204  A    between atoms: _477  and  _478
REMARK  205  A    between atoms: _477  and  _480
REMARK  206  A    between atoms: _480  and  _481
REMARK  207  A    between atoms: _484  and  _486
REMARK  208  A    between atoms: _486  and  _487
REMARK  209  A    between atoms: _486  and  _489
REMARK  210  A    between atoms: _489  and  _490
REMARK  211  A    between atoms: _496  and  _498
REMARK  212  A    between atoms: _498  and  _499
REMARK  213  A    between atoms: _501  and  _503
REMARK  214  A    between atoms: _503  and  _504
REMARK  215  A    between atoms: _503  and  _506
REMARK  216  A    between atoms: _506  and  _507
REMARK                            x       y       z     vdW  Elec       q    Type
REMARK                         _______ _______ _______ _____ _____    ______ ____
ROOT
ATOM      1  O   HOH     1      -3.345   7.048  16.568  0.00  0.00    +0.000 OA
ENDROOT
TORSDOF 0
REMARK  Name = ../refined-set-2016/1nvr/1nvr_pocket.pdb
REMARK  216 active torsions:
REMARK  status: ('A' for Active; 'I' for Inactive)
REMARK    1  A    between atoms: _1  and  _3
REMARK    2  A    between atoms: _3  and  _4
REMARK    3  A    between atoms: _3  and  _6
REMARK    4  A    between atoms: _6  and  _7
REMARK    5  A    between atoms: _7  and  _8
REMARK    6  A    between atoms: _13  and  _15
REMARK    7  A    between atoms: _15  and  _16
REMARK    8  A    between atoms: _15  and  _18
REMARK    9  A    between atoms: _18  and  _19
REMARK   10  A    between atoms: _22  and  _24
REMARK   11  A    between atoms: _24  and  _25
REMARK   12  A    between atoms: _24  and  _27
REMARK   13  A    between atoms: _27  and  _28
REMARK   14  A    between atoms: _31  and  _33
REMARK   15  A    between atoms: _33  and  _34
REMARK   16  A    between atoms: _36  and  _38
REMARK   17  A    between atoms: _38  and  _39
REMARK   18  A    between atoms: _38  and  _41
REMARK   19  A    between atoms: _41  and  _42
REMARK   20  A    between atoms: _42  and  _43
REMARK   21  A    between atoms: _46  and  _48
REMARK   22  A    between atoms: _48  and  _49
REMARK   23  A    between atoms: _51  and  _53
REMARK   24  A    between atoms: _53  and  _54
REMARK   25  A    between atoms: _53  and  _56
REMARK   26  A    between atoms: _56  and  _57
REMARK   27  A    between atoms: _62  and  _63
REMARK   28  A    between atoms: _65  and  _67
REMARK   29  A    between atoms: _67  and  _68
REMARK   30  A    between atoms: _70  and  _72
REMARK   31  A    between atoms: _72  and  _73
REMARK   32  A    between atoms: _72  and  _75
REMARK   33  A    between atoms: _75  and  _76
REMARK   34  A    between atoms: _76  and  _77
REMARK   35  A    between atoms: _80  and  _82
REMARK   36  A    between atoms: _82  and  _83
REMARK   37  A    between atoms: _82  and  _85
REMARK   38  A    between atoms: _88  and  _90
REMARK   39  A    between atoms: _90  and  _91
REMARK   40  A    between atoms: _90  and  _93
REMARK   41  A    between atoms: _93  and  _94
REMARK   42  A    between atoms: _94  and  _95
REMARK   43  A    between atoms: _100  and  _102
REMARK   44  A    between atoms: _102  and  _103
REMARK   45  A    between atoms: _102  and  _105
REMARK   46  A    between atoms: _105  and  _106
REMARK   47  A    between atoms: _109  and  _111
REMARK   48  A    between atoms: _111  and  _112
REMARK   49  A    between atoms: _115  and  _117
REMARK   50  A    between atoms: _117  and  _118
REMARK   51  A    between atoms: _121  and  _123
REMARK   52  A    between atoms: _123  and  _124
REMARK   53  A    between atoms: _123  and  _126
REMARK   54  A    between atoms: _129  and  _131
REMARK   55  A    between atoms: _131  and  _132
REMARK   56  A    between atoms: _135  and  _137
REMARK   57  A    between atoms: _137  and  _138
REMARK   58  A    between atoms: _137  and  _140
REMARK   59  A    between atoms: _143  and  _145
REMARK   60  A    between atoms: _145  and  _146
REMARK   61  A    between atoms: _145  and  _148
REMARK   62  A    between atoms: _148  and  _149
REMARK   63  A    between atoms: _149  and  _150
REMARK   64  A    between atoms: _150  and  _151
REMARK   65  A    between atoms: _151  and  _152
REMARK   66  A    between atoms: _156  and  _158
REMARK   67  A    between atoms: _158  and  _159
REMARK   68  A    between atoms: _158  and  _161
REMARK   69  A    between atoms: _161  and  _162
REMARK   70  A    between atoms: _165  and  _167
REMARK   71  A    between atoms: _167  and  _168
REMARK   72  A    between atoms: _167  and  _170
REMARK   73  A    between atoms: _173  and  _175
REMARK   74  A    between atoms: _175  and  _176
REMARK   75  A    between atoms: _175  and  _178
REMARK   76  A    between atoms: _178  and  _179
REMARK   77  A    between atoms: _179  and  _180
REMARK   78  A    between atoms: _183  and  _185
REMARK   79  A    between atoms: _185  and  _186
REMARK   80  A    between atoms: _185  and  _188
REMARK   81  A    between atoms: _188  and  _189
REMARK   82  A    between atoms: _194  and  _196
REMARK   83  A    between atoms: _196  and  _197
REMARK   84  A    between atoms: _196  and  _199
REMARK   85  A    between atoms: _202  and  _204
REMARK   86  A    between atoms: _204  and  _205
REMARK   87  A    between atoms: _204  and  _207
REMARK   88  A    between atoms: _207  and  _208
REMARK   89  A    between atoms: _208  and  _209
REMARK   90  A    between atoms: _209  and  _210
REMARK   91  A    between atoms: _210  and  _211
REMARK   92  A    between atoms: _215  and  _217
REMARK   93  A    between atoms: _217  and  _218
REMARK   94  A    between atoms: _217  and  _220
REMARK   95  A    between atoms: _220  and  _221
REMARK   96  A    between atoms: _226  and  _227
REMARK   97  A    between atoms: _229  and  _231
REMARK   98  A    between atoms: _231  and  _232
REMARK   99  A    between atoms: _231  and  _234
REMARK  100  A    between atoms: _234  and  _235
REMARK  101  A    between atoms: _238  and  _240
REMARK  102  A    between atoms: _240  and  _241
REMARK  103  A    between atoms: _240  and  _243
REMARK  104  A    between atoms: _243  and  _244
REMARK  105  A    between atoms: _250  and  _252
REMARK  106  A    between atoms: _252  and  _253
REMARK  107  A    between atoms: _252  and  _255
REMARK  108  A    between atoms: _255  and  _256
REMARK  109  A    between atoms: _259  and  _261
REMARK  110  A    between atoms: _261  and  _262
REMARK  111  A    between atoms: _261  and  _264
REMARK  112  A    between atoms: _264  and  _265
REMARK  113  A    between atoms: _265  and  _266
REMARK  114  A    between atoms: _269  and  _271
REMARK  115  A    between atoms: _271  and  _272
REMARK  116  A    between atoms: _271  and  _274
REMARK  117  A    between atoms: _274  and  _275
REMARK  118  A    between atoms: _280  and  _281
REMARK  119  A    between atoms: _283  and  _285
REMARK  120  A    between atoms: _285  and  _286
REMARK  121  A    between atoms: _285  and  _288
REMARK  122  A    between atoms: _290  and  _292
REMARK  123  A    between atoms: _292  and  _293
REMARK  124  A    between atoms: _292  and  _295
REMARK  125  A    between atoms: _295  and  _296
REMARK  126  A    between atoms: _298  and  _300
REMARK  127  A    between atoms: _300  and  _301
REMARK  128  A    between atoms: _303  and  _305
REMARK  129  A    between atoms: _305  and  _306
REMARK  130  A    between atoms: _308  and  _310
REMARK  131  A    between atoms: _310  and  _311
REMARK  132  A    between atoms: _310  and  _313
REMARK  133  A    between atoms: _313  and  _314
REMARK  134  A    between atoms: _314  and  _315
REMARK  135  A    between atoms: _318  and  _320
REMARK  136  A    between atoms: _320  and  _321
REMARK  137  A    between atoms: _320  and  _323
REMARK  138  A    between atoms: _323  and  _324
REMARK  139  A    between atoms: _327  and  _329
REMARK  140  A    between atoms: _329  and  _330
REMARK  141  A    between atoms: _329  and  _332
REMARK  142  A    between atoms: _332  and  _333
REMARK  143  A    between atoms: _339  and  _341
REMARK  144  A    between atoms: _341  and  _342
REMARK  145  A    between atoms: _341  and  _344
REMARK  146  A    between atoms: _344  and  _345
REMARK  147  A    between atoms: _348  and  _350
REMARK  148  A    between atoms: _350  and  _351
REMARK  149  A    between atoms: _350  and  _353
REMARK  150  A    between atoms: _353  and  _354
REMARK  151  A    between atoms: _359  and  _361
REMARK  152  A    between atoms: _361  and  _362
REMARK  153  A    between atoms: _361  and  _364
REMARK  154  A    between atoms: _364  and  _365
REMARK  155  A    between atoms: _368  and  _370
REMARK  156  A    between atoms: _370  and  _371
REMARK  157  A    between atoms: _370  and  _373
REMARK  158  A    between atoms: _373  and  _374
REMARK  159  A    between atoms: _374  and  _375
REMARK  160  A    between atoms: _375  and  _376
REMARK  161  A    between atoms: _376  and  _377
REMARK  162  A    between atoms: _382  and  _383
REMARK  163  A    between atoms: _388  and  _390
REMARK  164  A    between atoms: _390  and  _391
REMARK  165  A    between atoms: _390  and  _393
REMARK  166  A    between atoms: _393  and  _394
REMARK  167  A    between atoms: _394  and  _395
REMARK  168  A    between atoms: _398  and  _400
REMARK  169  A    between atoms: _400  and  _401
REMARK  170  A    between atoms: _400  and  _403
REMARK  171  A    between atoms: _403  and  _404
REMARK  172  A    between atoms: _409  and  _411
REMARK  173  A    between atoms: _411  and  _412
REMARK  174  A    between atoms: _411  and  _414
REMARK  175  A    between atoms: _414  and  _415
REMARK  176  A    between atoms: _418  and  _420
REMARK  177  A    between atoms: _420  and  _421
REMARK  178  A    between atoms: _420  and  _423
REMARK  179  A    between atoms: _423  and  _424
REMARK  180  A    between atoms: _427  and  _429
REMARK  181  A    between atoms: _429  and  _430
REMARK  182  A    between atoms: _429  and  _432
REMARK  183  A    between atoms: _432  and  _433
REMARK  184  A    between atoms: _436  and  _438
REMARK  185  A    between atoms: _438  and  _439
REMARK  186  A    between atoms: _438  and  _441
REMARK  187  A    between atoms: _441  and  _442
REMARK  188  A    between atoms: _445  and  _447
REMARK  189  A    between atoms: _447  and  _448
REMARK  190  A    between atoms: _447  and  _450
REMARK  191  A    between atoms: _450  and  _451
REMARK  192  A    between atoms: _451  and  _452
REMARK  193  A    between atoms: _452  and  _453
REMARK  194  A    between atoms: _453  and  _454
REMARK  195  A    between atoms: _458  and  _460
REMARK  196  A    between atoms: _460  and  _461
REMARK  197  A    between atoms: _460  and  _463
REMARK  198  A    between atoms: _463  and  _464
REMARK  199  A    between atoms: _467  and  _469
REMARK  200  A    between atoms: _469  and  _470
REMARK  201  A    between atoms: _469  and  _472
REMARK  202  A    between atoms: _472  and  _473
REMARK  203  A    between atoms: _475  and  _477
REMARK  204  A    between atoms: _477  and  _478
REMARK  205  A    between atoms: _477  and  _480
REMARK  206  A    between atoms: _480  and  _481
REMARK  207  A    between atoms: _484  and  _486
REMARK  208  A    between atoms: _486  and  _487
REMARK  209  A    between atoms: _486  and  _489
REMARK  210  A    between atoms: _489  and  _490
REMARK  211  A    between atoms: _496  and  _498
REMARK  212  A    between atoms: _498  and  _499
REMARK  213  A    between atoms: _501  and  _503
REMARK  214  A    between atoms: _503  and  _504
REMARK  215  A    between atoms: _503  and  _506
REMARK  216  A    between atoms: _506  and  _507
REMARK                            x       y       z     vdW  Elec       q    Type
REMARK                         _______ _______ _______ _____ _____    ______ ____
ROOT
ATOM      1  O   HOH     1      -5.251  10.542  15.770  0.00  0.00    +0.000 OA
ENDROOT
TORSDOF 0
REMARK  Name = ../refined-set-2016/1nvr/1nvr_pocket.pdb
REMARK  216 active torsions:
REMARK  status: ('A' for Active; 'I' for Inactive)
REMARK    1  A    between atoms: _1  and  _3
REMARK    2  A    between atoms: _3  and  _4
REMARK    3  A    between atoms: _3  and  _6
REMARK    4  A    between atoms: _6  and  _7
REMARK    5  A    between atoms: _7  and  _8
REMARK    6  A    between atoms: _13  and  _15
REMARK    7  A    between atoms: _15  and  _16
REMARK    8  A    between atoms: _15  and  _18
REMARK    9  A    between atoms: _18  and  _19
REMARK   10  A    between atoms: _22  and  _24
REMARK   11  A    between atoms: _24  and  _25
REMARK   12  A    between atoms: _24  and  _27
REMARK   13  A    between atoms: _27  and  _28
REMARK   14  A    between atoms: _31  and  _33
REMARK   15  A    between atoms: _33  and  _34
REMARK   16  A    between atoms: _36  and  _38
REMARK   17  A    between atoms: _38  and  _39
REMARK   18  A    between atoms: _38  and  _41
REMARK   19  A    between atoms: _41  and  _42
REMARK   20  A    between atoms: _42  and  _43
REMARK   21  A    between atoms: _46  and  _48
REMARK   22  A    between atoms: _48  and  _49
REMARK   23  A    between atoms: _51  and  _53
REMARK   24  A    between atoms: _53  and  _54
REMARK   25  A    between atoms: _53  and  _56
REMARK   26  A    between atoms: _56  and  _57
REMARK   27  A    between atoms: _62  and  _63
REMARK   28  A    between atoms: _65  and  _67
REMARK   29  A    between atoms: _67  and  _68
REMARK   30  A    between atoms: _70  and  _72
REMARK   31  A    between atoms: _72  and  _73
REMARK   32  A    between atoms: _72  and  _75
REMARK   33  A    between atoms: _75  and  _76
REMARK   34  A    between atoms: _76  and  _77
REMARK   35  A    between atoms: _80  and  _82
REMARK   36  A    between atoms: _82  and  _83
REMARK   37  A    between atoms: _82  and  _85
REMARK   38  A    between atoms: _88  and  _90
REMARK   39  A    between atoms: _90  and  _91
REMARK   40  A    between atoms: _90  and  _93
REMARK   41  A    between atoms: _93  and  _94
REMARK   42  A    between atoms: _94  and  _95
REMARK   43  A    between atoms: _100  and  _102
REMARK   44  A    between atoms: _102  and  _103
REMARK   45  A    between atoms: _102  and  _105
REMARK   46  A    between atoms: _105  and  _106
REMARK   47  A    between atoms: _109  and  _111
REMARK   48  A    between atoms: _111  and  _112
REMARK   49  A    between atoms: _115  and  _117
REMARK   50  A    between atoms: _117  and  _118
REMARK   51  A    between atoms: _121  and  _123
REMARK   52  A    between atoms: _123  and  _124
REMARK   53  A    between atoms: _123  and  _126
REMARK   54  A    between atoms: _129  and  _131
REMARK   55  A    between atoms: _131  and  _132
REMARK   56  A    between atoms: _135  and  _137
REMARK   57  A    between atoms: _137  and  _138
REMARK   58  A    between atoms: _137  and  _140
REMARK   59  A    between atoms: _143  and  _145
REMARK   60  A    between atoms: _145  and  _146
REMARK   61  A    between atoms: _145  and  _148
REMARK   62  A    between atoms: _148  and  _149
REMARK   63  A    between atoms: _149  and  _150
REMARK   64  A    between atoms: _150  and  _151
REMARK   65  A    between atoms: _151  and  _152
REMARK   66  A    between atoms: _156  and  _158
REMARK   67  A    between atoms: _158  and  _159
REMARK   68  A    between atoms: _158  and  _161
REMARK   69  A    between atoms: _161  and  _162
REMARK   70  A    between atoms: _165  and  _167
REMARK   71  A    between atoms: _167  and  _168
REMARK   72  A    between atoms: _167  and  _170
REMARK   73  A    between atoms: _173  and  _175
REMARK   74  A    between atoms: _175  and  _176
REMARK   75  A    between atoms: _175  and  _178
REMARK   76  A    between atoms: _178  and  _179
REMARK   77  A    between atoms: _179  and  _180
REMARK   78  A    between atoms: _183  and  _185
REMARK   79  A    between atoms: _185  and  _186
REMARK   80  A    between atoms: _185  and  _188
REMARK   81  A    between atoms: _188  and  _189
REMARK   82  A    between atoms: _194  and  _196
REMARK   83  A    between atoms: _196  and  _197
REMARK   84  A    between atoms: _196  and  _199
REMARK   85  A    between atoms: _202  and  _204
REMARK   86  A    between atoms: _204  and  _205
REMARK   87  A    between atoms: _204  and  _207
REMARK   88  A    between atoms: _207  and  _208
REMARK   89  A    between atoms: _208  and  _209
REMARK   90  A    between atoms: _209  and  _210
REMARK   91  A    between atoms: _210  and  _211
REMARK   92  A    between atoms: _215  and  _217
REMARK   93  A    between atoms: _217  and  _218
REMARK   94  A    between atoms: _217  and  _220
REMARK   95  A    between atoms: _220  and  _221
REMARK   96  A    between atoms: _226  and  _227
REMARK   97  A    between atoms: _229  and  _231
REMARK   98  A    between atoms: _231  and  _232
REMARK   99  A    between atoms: _231  and  _234
REMARK  100  A    between atoms: _234  and  _235
REMARK  101  A    between atoms: _238  and  _240
REMARK  102  A    between atoms: _240  and  _241
REMARK  103  A    between atoms: _240  and  _243
REMARK  104  A    between atoms: _243  and  _244
REMARK  105  A    between atoms: _250  and  _252
REMARK  106  A    between atoms: _252  and  _253
REMARK  107  A    between atoms: _252  and  _255
REMARK  108  A    between atoms: _255  and  _256
REMARK  109  A    between atoms: _259  and  _261
REMARK  110  A    between atoms: _261  and  _262
REMARK  111  A    between atoms: _261  and  _264
REMARK  112  A    between atoms: _264  and  _265
REMARK  113  A    between atoms: _265  and  _266
REMARK  114  A    between atoms: _269  and  _271
REMARK  115  A    between atoms: _271  and  _272
REMARK  116  A    between atoms: _271  and  _274
REMARK  117  A    between atoms: _274  and  _275
REMARK  118  A    between atoms: _280  and  _281
REMARK  119  A    between atoms: _283  and  _285
REMARK  120  A    between atoms: _285  and  _286
REMARK  121  A    between atoms: _285  and  _288
REMARK  122  A    between atoms: _290  and  _292
REMARK  123  A    between atoms: _292  and  _293
REMARK  124  A    between atoms: _292  and  _295
REMARK  125  A    between atoms: _295  and  _296
REMARK  126  A    between atoms: _298  and  _300
REMARK  127  A    between atoms: _300  and  _301
REMARK  128  A    between atoms: _303  and  _305
REMARK  129  A    between atoms: _305  and  _306
REMARK  130  A    between atoms: _308  and  _310
REMARK  131  A    between atoms: _310  and  _311
REMARK  132  A    between atoms: _310  and  _313
REMARK  133  A    between atoms: _313  and  _314
REMARK  134  A    between atoms: _314  and  _315
REMARK  135  A    between atoms: _318  and  _320
REMARK  136  A    between atoms: _320  and  _321
REMARK  137  A    between atoms: _320  and  _323
REMARK  138  A    between atoms: _323  and  _324
REMARK  139  A    between atoms: _327  and  _329
REMARK  140  A    between atoms: _329  and  _330
REMARK  141  A    between atoms: _329  and  _332
REMARK  142  A    between atoms: _332  and  _333
REMARK  143  A    between atoms: _339  and  _341
REMARK  144  A    between atoms: _341  and  _342
REMARK  145  A    between atoms: _341  and  _344
REMARK  146  A    between atoms: _344  and  _345
REMARK  147  A    between atoms: _348  and  _350
REMARK  148  A    between atoms: _350  and  _351
REMARK  149  A    between atoms: _350  and  _353
REMARK  150  A    between atoms: _353  and  _354
REMARK  151  A    between atoms: _359  and  _361
REMARK  152  A    between atoms: _361  and  _362
REMARK  153  A    between atoms: _361  and  _364
REMARK  154  A    between atoms: _364  and  _365
REMARK  155  A    between atoms: _368  and  _370
REMARK  156  A    between atoms: _370  and  _371
REMARK  157  A    between atoms: _370  and  _373
REMARK  158  A    between atoms: _373  and  _374
REMARK  159  A    between atoms: _374  and  _375
REMARK  160  A    between atoms: _375  and  _376
REMARK  161  A    between atoms: _376  and  _377
REMARK  162  A    between atoms: _382  and  _383
REMARK  163  A    between atoms: _388  and  _390
REMARK  164  A    between atoms: _390  and  _391
REMARK  165  A    between atoms: _390  and  _393
REMARK  166  A    between atoms: _393  and  _394
REMARK  167  A    between atoms: _394  and  _395
REMARK  168  A    between atoms: _398  and  _400
REMARK  169  A    between atoms: _400  and  _401
REMARK  170  A    between atoms: _400  and  _403
REMARK  171  A    between atoms: _403  and  _404
REMARK  172  A    between atoms: _409  and  _411
REMARK  173  A    between atoms: _411  and  _412
REMARK  174  A    between atoms: _411  and  _414
REMARK  175  A    between atoms: _414  and  _415
REMARK  176  A    between atoms: _418  and  _420
REMARK  177  A    between atoms: _420  and  _421
REMARK  178  A    between atoms: _420  and  _423
REMARK  179  A    between atoms: _423  and  _424
REMARK  180  A    between atoms: _427  and  _429
REMARK  181  A    between atoms: _429  and  _430
REMARK  182  A    between atoms: _429  and  _432
REMARK  183  A    between atoms: _432  and  _433
REMARK  184  A    between atoms: _436  and  _438
REMARK  185  A    between atoms: _438  and  _439
REMARK  186  A    between atoms: _438  and  _441
REMARK  187  A    between atoms: _441  and  _442
REMARK  188  A    between atoms: _445  and  _447
REMARK  189  A    between atoms: _447  and  _448
REMARK  190  A    between atoms: _447  and  _450
REMARK  191  A    between atoms: _450  and  _451
REMARK  192  A    between atoms: _451  and  _452
REMARK  193  A    between atoms: _452  and  _453
REMARK  194  A    between atoms: _453  and  _454
REMARK  195  A    between atoms: _458  and  _460
REMARK  196  A    between atoms: _460  and  _461
REMARK  197  A    between atoms: _460  and  _463
REMARK  198  A    between atoms: _463  and  _464
REMARK  199  A    between atoms: _467  and  _469
REMARK  200  A    between atoms: _469  and  _470
REMARK  201  A    between atoms: _469  and  _472
REMARK  202  A    between atoms: _472  and  _473
REMARK  203  A    between atoms: _475  and  _477
REMARK  204  A    between atoms: _477  and  _478
REMARK  205  A    between atoms: _477  and  _480
REMARK  206  A    between atoms: _480  and  _481
REMARK  207  A    between atoms: _484  and  _486
REMARK  208  A    between atoms: _486  and  _487
REMARK  209  A    between atoms: _486  and  _489
REMARK  210  A    between atoms: _489  and  _490
REMARK  211  A    between atoms: _496  and  _498
REMARK  212  A    between atoms: _498  and  _499
REMARK  213  A    between atoms: _501  and  _503
REMARK  214  A    between atoms: _503  and  _504
REMARK  215  A    between atoms: _503  and  _506
REMARK  216  A    between atoms: _506  and  _507
REMARK                            x       y       z     vdW  Elec       q    Type
REMARK                         _______ _______ _______ _____ _____    ______ ____
ROOT
ATOM      1  O   HOH     1      10.546   9.872  15.012  0.00  0.00    +0.000 OA
ENDROOT
TORSDOF 0
REMARK  Name = ../refined-set-2016/1nvr/1nvr_pocket.pdb
REMARK  216 active torsions:
REMARK  status: ('A' for Active; 'I' for Inactive)
REMARK    1  A    between atoms: _1  and  _3
REMARK    2  A    between atoms: _3  and  _4
REMARK    3  A    between atoms: _3  and  _6
REMARK    4  A    between atoms: _6  and  _7
REMARK    5  A    between atoms: _7  and  _8
REMARK    6  A    between atoms: _13  and  _15
REMARK    7  A    between atoms: _15  and  _16
REMARK    8  A    between atoms: _15  and  _18
REMARK    9  A    between atoms: _18  and  _19
REMARK   10  A    between atoms: _22  and  _24
REMARK   11  A    between atoms: _24  and  _25
REMARK   12  A    between atoms: _24  and  _27
REMARK   13  A    between atoms: _27  and  _28
REMARK   14  A    between atoms: _31  and  _33
REMARK   15  A    between atoms: _33  and  _34
REMARK   16  A    between atoms: _36  and  _38
REMARK   17  A    between atoms: _38  and  _39
REMARK   18  A    between atoms: _38  and  _41
REMARK   19  A    between atoms: _41  and  _42
REMARK   20  A    between atoms: _42  and  _43
REMARK   21  A    between atoms: _46  and  _48
REMARK   22  A    between atoms: _48  and  _49
REMARK   23  A    between atoms: _51  and  _53
REMARK   24  A    between atoms: _53  and  _54
REMARK   25  A    between atoms: _53  and  _56
REMARK   26  A    between atoms: _56  and  _57
REMARK   27  A    between atoms: _62  and  _63
REMARK   28  A    between atoms: _65  and  _67
REMARK   29  A    between atoms: _67  and  _68
REMARK   30  A    between atoms: _70  and  _72
REMARK   31  A    between atoms: _72  and  _73
REMARK   32  A    between atoms: _72  and  _75
REMARK   33  A    between atoms: _75  and  _76
REMARK   34  A    between atoms: _76  and  _77
REMARK   35  A    between atoms: _80  and  _82
REMARK   36  A    between atoms: _82  and  _83
REMARK   37  A    between atoms: _82  and  _85
REMARK   38  A    between atoms: _88  and  _90
REMARK   39  A    between atoms: _90  and  _91
REMARK   40  A    between atoms: _90  and  _93
REMARK   41  A    between atoms: _93  and  _94
REMARK   42  A    between atoms: _94  and  _95
REMARK   43  A    between atoms: _100  and  _102
REMARK   44  A    between atoms: _102  and  _103
REMARK   45  A    between atoms: _102  and  _105
REMARK   46  A    between atoms: _105  and  _106
REMARK   47  A    between atoms: _109  and  _111
REMARK   48  A    between atoms: _111  and  _112
REMARK   49  A    between atoms: _115  and  _117
REMARK   50  A    between atoms: _117  and  _118
REMARK   51  A    between atoms: _121  and  _123
REMARK   52  A    between atoms: _123  and  _124
REMARK   53  A    between atoms: _123  and  _126
REMARK   54  A    between atoms: _129  and  _131
REMARK   55  A    between atoms: _131  and  _132
REMARK   56  A    between atoms: _135  and  _137
REMARK   57  A    between atoms: _137  and  _138
REMARK   58  A    between atoms: _137  and  _140
REMARK   59  A    between atoms: _143  and  _145
REMARK   60  A    between atoms: _145  and  _146
REMARK   61  A    between atoms: _145  and  _148
REMARK   62  A    between atoms: _148  and  _149
REMARK   63  A    between atoms: _149  and  _150
REMARK   64  A    between atoms: _150  and  _151
REMARK   65  A    between atoms: _151  and  _152
REMARK   66  A    between atoms: _156  and  _158
REMARK   67  A    between atoms: _158  and  _159
REMARK   68  A    between atoms: _158  and  _161
REMARK   69  A    between atoms: _161  and  _162
REMARK   70  A    between atoms: _165  and  _167
REMARK   71  A    between atoms: _167  and  _168
REMARK   72  A    between atoms: _167  and  _170
REMARK   73  A    between atoms: _173  and  _175
REMARK   74  A    between atoms: _175  and  _176
REMARK   75  A    between atoms: _175  and  _178
REMARK   76  A    between atoms: _178  and  _179
REMARK   77  A    between atoms: _179  and  _180
REMARK   78  A    between atoms: _183  and  _185
REMARK   79  A    between atoms: _185  and  _186
REMARK   80  A    between atoms: _185  and  _188
REMARK   81  A    between atoms: _188  and  _189
REMARK   82  A    between atoms: _194  and  _196
REMARK   83  A    between atoms: _196  and  _197
REMARK   84  A    between atoms: _196  and  _199
REMARK   85  A    between atoms: _202  and  _204
REMARK   86  A    between atoms: _204  and  _205
REMARK   87  A    between atoms: _204  and  _207
REMARK   88  A    between atoms: _207  and  _208
REMARK   89  A    between atoms: _208  and  _209
REMARK   90  A    between atoms: _209  and  _210
REMARK   91  A    between atoms: _210  and  _211
REMARK   92  A    between atoms: _215  and  _217
REMARK   93  A    between atoms: _217  and  _218
REMARK   94  A    between atoms: _217  and  _220
REMARK   95  A    between atoms: _220  and  _221
REMARK   96  A    between atoms: _226  and  _227
REMARK   97  A    between atoms: _229  and  _231
REMARK   98  A    between atoms: _231  and  _232
REMARK   99  A    between atoms: _231  and  _234
REMARK  100  A    between atoms: _234  and  _235
REMARK  101  A    between atoms: _238  and  _240
REMARK  102  A    between atoms: _240  and  _241
REMARK  103  A    between atoms: _240  and  _243
REMARK  104  A    between atoms: _243  and  _244
REMARK  105  A    between atoms: _250  and  _252
REMARK  106  A    between atoms: _252  and  _253
REMARK  107  A    between atoms: _252  and  _255
REMARK  108  A    between atoms: _255  and  _256
REMARK  109  A    between atoms: _259  and  _261
REMARK  110  A    between atoms: _261  and  _262
REMARK  111  A    between atoms: _261  and  _264
REMARK  112  A    between atoms: _264  and  _265
REMARK  113  A    between atoms: _265  and  _266
REMARK  114  A    between atoms: _269  and  _271
REMARK  115  A    between atoms: _271  and  _272
REMARK  116  A    between atoms: _271  and  _274
REMARK  117  A    between atoms: _274  and  _275
REMARK  118  A    between atoms: _280  and  _281
REMARK  119  A    between atoms: _283  and  _285
REMARK  120  A    between atoms: _285  and  _286
REMARK  121  A    between atoms: _285  and  _288
REMARK  122  A    between atoms: _290  and  _292
REMARK  123  A    between atoms: _292  and  _293
REMARK  124  A    between atoms: _292  and  _295
REMARK  125  A    between atoms: _295  and  _296
REMARK  126  A    between atoms: _298  and  _300
REMARK  127  A    between atoms: _300  and  _301
REMARK  128  A    between atoms: _303  and  _305
REMARK  129  A    between atoms: _305  and  _306
REMARK  130  A    between atoms: _308  and  _310
REMARK  131  A    between atoms: _310  and  _311
REMARK  132  A    between atoms: _310  and  _313
REMARK  133  A    between atoms: _313  and  _314
REMARK  134  A    between atoms: _314  and  _315
REMARK  135  A    between atoms: _318  and  _320
REMARK  136  A    between atoms: _320  and  _321
REMARK  137  A    between atoms: _320  and  _323
REMARK  138  A    between atoms: _323  and  _324
REMARK  139  A    between atoms: _327  and  _329
REMARK  140  A    between atoms: _329  and  _330
REMARK  141  A    between atoms: _329  and  _332
REMARK  142  A    between atoms: _332  and  _333
REMARK  143  A    between atoms: _339  and  _341
REMARK  144  A    between atoms: _341  and  _342
REMARK  145  A    between atoms: _341  and  _344
REMARK  146  A    between atoms: _344  and  _345
REMARK  147  A    between atoms: _348  and  _350
REMARK  148  A    between atoms: _350  and  _351
REMARK  149  A    between atoms: _350  and  _353
REMARK  150  A    between atoms: _353  and  _354
REMARK  151  A    between atoms: _359  and  _361
REMARK  152  A    between atoms: _361  and  _362
REMARK  153  A    between atoms: _361  and  _364
REMARK  154  A    between atoms: _364  and  _365
REMARK  155  A    between atoms: _368  and  _370
REMARK  156  A    between atoms: _370  and  _371
REMARK  157  A    between atoms: _370  and  _373
REMARK  158  A    between atoms: _373  and  _374
REMARK  159  A    between atoms: _374  and  _375
REMARK  160  A    between atoms: _375  and  _376
REMARK  161  A    between atoms: _376  and  _377
REMARK  162  A    between atoms: _382  and  _383
REMARK  163  A    between atoms: _388  and  _390
REMARK  164  A    between atoms: _390  and  _391
REMARK  165  A    between atoms: _390  and  _393
REMARK  166  A    between atoms: _393  and  _394
REMARK  167  A    between atoms: _394  and  _395
REMARK  168  A    between atoms: _398  and  _400
REMARK  169  A    between atoms: _400  and  _401
REMARK  170  A    between atoms: _400  and  _403
REMARK  171  A    between atoms: _403  and  _404
REMARK  172  A    between atoms: _409  and  _411
REMARK  173  A    between atoms: _411  and  _412
REMARK  174  A    between atoms: _411  and  _414
REMARK  175  A    between atoms: _414  and  _415
REMARK  176  A    between atoms: _418  and  _420
REMARK  177  A    between atoms: _420  and  _421
REMARK  178  A    between atoms: _420  and  _423
REMARK  179  A    between atoms: _423  and  _424
REMARK  180  A    between atoms: _427  and  _429
REMARK  181  A    between atoms: _429  and  _430
REMARK  182  A    between atoms: _429  and  _432
REMARK  183  A    between atoms: _432  and  _433
REMARK  184  A    between atoms: _436  and  _438
REMARK  185  A    between atoms: _438  and  _439
REMARK  186  A    between atoms: _438  and  _441
REMARK  187  A    between atoms: _441  and  _442
REMARK  188  A    between atoms: _445  and  _447
REMARK  189  A    between atoms: _447  and  _448
REMARK  190  A    between atoms: _447  and  _450
REMARK  191  A    between atoms: _450  and  _451
REMARK  192  A    between atoms: _451  and  _452
REMARK  193  A    between atoms: _452  and  _453
REMARK  194  A    between atoms: _453  and  _454
REMARK  195  A    between atoms: _458  and  _460
REMARK  196  A    between atoms: _460  and  _461
REMARK  197  A    between atoms: _460  and  _463
REMARK  198  A    between atoms: _463  and  _464
REMARK  199  A    between atoms: _467  and  _469
REMARK  200  A    between atoms: _469  and  _470
REMARK  201  A    between atoms: _469  and  _472
REMARK  202  A    between atoms: _472  and  _473
REMARK  203  A    between atoms: _475  and  _477
REMARK  204  A    between atoms: _477  and  _478
REMARK  205  A    between atoms: _477  and  _480
REMARK  206  A    between atoms: _480  and  _481
REMARK  207  A    between atoms: _484  and  _486
REMARK  208  A    between atoms: _486  and  _487
REMARK  209  A    between atoms: _486  and  _489
REMARK  210  A    between atoms: _489  and  _490
REMARK  211  A    between atoms: _496  and  _498
REMARK  212  A    between atoms: _498  and  _499
REMARK  213  A    between atoms: _501  and  _503
REMARK  214  A    between atoms: _503  and  _504
REMARK  215  A    between atoms: _503  and  _506
REMARK  216  A    between atoms: _506  and  _507
REMARK                            x       y       z     vdW  Elec       q    Type
REMARK                         _______ _______ _______ _____ _____    ______ ____
ROOT
ATOM      1  O   HOH     1       6.151   3.633  11.648  0.00  0.00    +0.000 OA
ENDROOT
TORSDOF 0
REMARK  Name = ../refined-set-2016/1nvr/1nvr_pocket.pdb
REMARK  216 active torsions:
REMARK  status: ('A' for Active; 'I' for Inactive)
REMARK    1  A    between atoms: _1  and  _3
REMARK    2  A    between atoms: _3  and  _4
REMARK    3  A    between atoms: _3  and  _6
REMARK    4  A    between atoms: _6  and  _7
REMARK    5  A    between atoms: _7  and  _8
REMARK    6  A    between atoms: _13  and  _15
REMARK    7  A    between atoms: _15  and  _16
REMARK    8  A    between atoms: _15  and  _18
REMARK    9  A    between atoms: _18  and  _19
REMARK   10  A    between atoms: _22  and  _24
REMARK   11  A    between atoms: _24  and  _25
REMARK   12  A    between atoms: _24  and  _27
REMARK   13  A    between atoms: _27  and  _28
REMARK   14  A    between atoms: _31  and  _33
REMARK   15  A    between atoms: _33  and  _34
REMARK   16  A    between atoms: _36  and  _38
REMARK   17  A    between atoms: _38  and  _39
REMARK   18  A    between atoms: _38  and  _41
REMARK   19  A    between atoms: _41  and  _42
REMARK   20  A    between atoms: _42  and  _43
REMARK   21  A    between atoms: _46  and  _48
REMARK   22  A    between atoms: _48  and  _49
REMARK   23  A    between atoms: _51  and  _53
REMARK   24  A    between atoms: _53  and  _54
REMARK   25  A    between atoms: _53  and  _56
REMARK   26  A    between atoms: _56  and  _57
REMARK   27  A    between atoms: _62  and  _63
REMARK   28  A    between atoms: _65  and  _67
REMARK   29  A    between atoms: _67  and  _68
REMARK   30  A    between atoms: _70  and  _72
REMARK   31  A    between atoms: _72  and  _73
REMARK   32  A    between atoms: _72  and  _75
REMARK   33  A    between atoms: _75  and  _76
REMARK   34  A    between atoms: _76  and  _77
REMARK   35  A    between atoms: _80  and  _82
REMARK   36  A    between atoms: _82  and  _83
REMARK   37  A    between atoms: _82  and  _85
REMARK   38  A    between atoms: _88  and  _90
REMARK   39  A    between atoms: _90  and  _91
REMARK   40  A    between atoms: _90  and  _93
REMARK   41  A    between atoms: _93  and  _94
REMARK   42  A    between atoms: _94  and  _95
REMARK   43  A    between atoms: _100  and  _102
REMARK   44  A    between atoms: _102  and  _103
REMARK   45  A    between atoms: _102  and  _105
REMARK   46  A    between atoms: _105  and  _106
REMARK   47  A    between atoms: _109  and  _111
REMARK   48  A    between atoms: _111  and  _112
REMARK   49  A    between atoms: _115  and  _117
REMARK   50  A    between atoms: _117  and  _118
REMARK   51  A    between atoms: _121  and  _123
REMARK   52  A    between atoms: _123  and  _124
REMARK   53  A    between atoms: _123  and  _126
REMARK   54  A    between atoms: _129  and  _131
REMARK   55  A    between atoms: _131  and  _132
REMARK   56  A    between atoms: _135  and  _137
REMARK   57  A    between atoms: _137  and  _138
REMARK   58  A    between atoms: _137  and  _140
REMARK   59  A    between atoms: _143  and  _145
REMARK   60  A    between atoms: _145  and  _146
REMARK   61  A    between atoms: _145  and  _148
REMARK   62  A    between atoms: _148  and  _149
REMARK   63  A    between atoms: _149  and  _150
REMARK   64  A    between atoms: _150  and  _151
REMARK   65  A    between atoms: _151  and  _152
REMARK   66  A    between atoms: _156  and  _158
REMARK   67  A    between atoms: _158  and  _159
REMARK   68  A    between atoms: _158  and  _161
REMARK   69  A    between atoms: _161  and  _162
REMARK   70  A    between atoms: _165  and  _167
REMARK   71  A    between atoms: _167  and  _168
REMARK   72  A    between atoms: _167  and  _170
REMARK   73  A    between atoms: _173  and  _175
REMARK   74  A    between atoms: _175  and  _176
REMARK   75  A    between atoms: _175  and  _178
REMARK   76  A    between atoms: _178  and  _179
REMARK   77  A    between atoms: _179  and  _180
REMARK   78  A    between atoms: _183  and  _185
REMARK   79  A    between atoms: _185  and  _186
REMARK   80  A    between atoms: _185  and  _188
REMARK   81  A    between atoms: _188  and  _189
REMARK   82  A    between atoms: _194  and  _196
REMARK   83  A    between atoms: _196  and  _197
REMARK   84  A    between atoms: _196  and  _199
REMARK   85  A    between atoms: _202  and  _204
REMARK   86  A    between atoms: _204  and  _205
REMARK   87  A    between atoms: _204  and  _207
REMARK   88  A    between atoms: _207  and  _208
REMARK   89  A    between atoms: _208  and  _209
REMARK   90  A    between atoms: _209  and  _210
REMARK   91  A    between atoms: _210  and  _211
REMARK   92  A    between atoms: _215  and  _217
REMARK   93  A    between atoms: _217  and  _218
REMARK   94  A    between atoms: _217  and  _220
REMARK   95  A    between atoms: _220  and  _221
REMARK   96  A    between atoms: _226  and  _227
REMARK   97  A    between atoms: _229  and  _231
REMARK   98  A    between atoms: _231  and  _232
REMARK   99  A    between atoms: _231  and  _234
REMARK  100  A    between atoms: _234  and  _235
REMARK  101  A    between atoms: _238  and  _240
REMARK  102  A    between atoms: _240  and  _241
REMARK  103  A    between atoms: _240  and  _243
REMARK  104  A    between atoms: _243  and  _244
REMARK  105  A    between atoms: _250  and  _252
REMARK  106  A    between atoms: _252  and  _253
REMARK  107  A    between atoms: _252  and  _255
REMARK  108  A    between atoms: _255  and  _256
REMARK  109  A    between atoms: _259  and  _261
REMARK  110  A    between atoms: _261  and  _262
REMARK  111  A    between atoms: _261  and  _264
REMARK  112  A    between atoms: _264  and  _265
REMARK  113  A    between atoms: _265  and  _266
REMARK  114  A    between atoms: _269  and  _271
REMARK  115  A    between atoms: _271  and  _272
REMARK  116  A    between atoms: _271  and  _274
REMARK  117  A    between atoms: _274  and  _275
REMARK  118  A    between atoms: _280  and  _281
REMARK  119  A    between atoms: _283  and  _285
REMARK  120  A    between atoms: _285  and  _286
REMARK  121  A    between atoms: _285  and  _288
REMARK  122  A    between atoms: _290  and  _292
REMARK  123  A    between atoms: _292  and  _293
REMARK  124  A    between atoms: _292  and  _295
REMARK  125  A    between atoms: _295  and  _296
REMARK  126  A    between atoms: _298  and  _300
REMARK  127  A    between atoms: _300  and  _301
REMARK  128  A    between atoms: _303  and  _305
REMARK  129  A    between atoms: _305  and  _306
REMARK  130  A    between atoms: _308  and  _310
REMARK  131  A    between atoms: _310  and  _311
REMARK  132  A    between atoms: _310  and  _313
REMARK  133  A    between atoms: _313  and  _314
REMARK  134  A    between atoms: _314  and  _315
REMARK  135  A    between atoms: _318  and  _320
REMARK  136  A    between atoms: _320  and  _321
REMARK  137  A    between atoms: _320  and  _323
REMARK  138  A    between atoms: _323  and  _324
REMARK  139  A    between atoms: _327  and  _329
REMARK  140  A    between atoms: _329  and  _330
REMARK  141  A    between atoms: _329  and  _332
REMARK  142  A    between atoms: _332  and  _333
REMARK  143  A    between atoms: _339  and  _341
REMARK  144  A    between atoms: _341  and  _342
REMARK  145  A    between atoms: _341  and  _344
REMARK  146  A    between atoms: _344  and  _345
REMARK  147  A    between atoms: _348  and  _350
REMARK  148  A    between atoms: _350  and  _351
REMARK  149  A    between atoms: _350  and  _353
REMARK  150  A    between atoms: _353  and  _354
REMARK  151  A    between atoms: _359  and  _361
REMARK  152  A    between atoms: _361  and  _362
REMARK  153  A    between atoms: _361  and  _364
REMARK  154  A    between atoms: _364  and  _365
REMARK  155  A    between atoms: _368  and  _370
REMARK  156  A    between atoms: _370  and  _371
REMARK  157  A    between atoms: _370  and  _373
REMARK  158  A    between atoms: _373  and  _374
REMARK  159  A    between atoms: _374  and  _375
REMARK  160  A    between atoms: _375  and  _376
REMARK  161  A    between atoms: _376  and  _377
REMARK  162  A    between atoms: _382  and  _383
REMARK  163  A    between atoms: _388  and  _390
REMARK  164  A    between atoms: _390  and  _391
REMARK  165  A    between atoms: _390  and  _393
REMARK  166  A    between atoms: _393  and  _394
REMARK  167  A    between atoms: _394  and  _395
REMARK  168  A    between atoms: _398  and  _400
REMARK  169  A    between atoms: _400  and  _401
REMARK  170  A    between atoms: _400  and  _403
REMARK  171  A    between atoms: _403  and  _404
REMARK  172  A    between atoms: _409  and  _411
REMARK  173  A    between atoms: _411  and  _412
REMARK  174  A    between atoms: _411  and  _414
REMARK  175  A    between atoms: _414  and  _415
REMARK  176  A    between atoms: _418  and  _420
REMARK  177  A    between atoms: _420  and  _421
REMARK  178  A    between atoms: _420  and  _423
REMARK  179  A    between atoms: _423  and  _424
REMARK  180  A    between atoms: _427  and  _429
REMARK  181  A    between atoms: _429  and  _430
REMARK  182  A    between atoms: _429  and  _432
REMARK  183  A    between atoms: _432  and  _433
REMARK  184  A    between atoms: _436  and  _438
REMARK  185  A    between atoms: _438  and  _439
REMARK  186  A    between atoms: _438  and  _441
REMARK  187  A    between atoms: _441  and  _442
REMARK  188  A    between atoms: _445  and  _447
REMARK  189  A    between atoms: _447  and  _448
REMARK  190  A    between atoms: _447  and  _450
REMARK  191  A    between atoms: _450  and  _451
REMARK  192  A    between atoms: _451  and  _452
REMARK  193  A    between atoms: _452  and  _453
REMARK  194  A    between atoms: _453  and  _454
REMARK  195  A    between atoms: _458  and  _460
REMARK  196  A    between atoms: _460  and  _461
REMARK  197  A    between atoms: _460  and  _463
REMARK  198  A    between atoms: _463  and  _464
REMARK  199  A    between atoms: _467  and  _469
REMARK  200  A    between atoms: _469  and  _470
REMARK  201  A    between atoms: _469  and  _472
REMARK  202  A    between atoms: _472  and  _473
REMARK  203  A    between atoms: _475  and  _477
REMARK  204  A    between atoms: _477  and  _478
REMARK  205  A    between atoms: _477  and  _480
REMARK  206  A    between atoms: _480  and  _481
REMARK  207  A    between atoms: _484  and  _486
REMARK  208  A    between atoms: _486  and  _487
REMARK  209  A    between atoms: _486  and  _489
REMARK  210  A    between atoms: _489  and  _490
REMARK  211  A    between atoms: _496  and  _498
REMARK  212  A    between atoms: _498  and  _499
REMARK  213  A    between atoms: _501  and  _503
REMARK  214  A    between atoms: _503  and  _504
REMARK  215  A    between atoms: _503  and  _506
REMARK  216  A    between atoms: _506  and  _507
REMARK                            x       y       z     vdW  Elec       q    Type
REMARK                         _______ _______ _______ _____ _____    ______ ____
ROOT
ATOM      1  O   HOH     1       1.183   1.293   6.315  0.00  0.00    +0.000 OA
ENDROOT
TORSDOF 0
REMARK  Name = ../refined-set-2016/1nvr/1nvr_pocket.pdb
REMARK  216 active torsions:
REMARK  status: ('A' for Active; 'I' for Inactive)
REMARK    1  A    between atoms: _1  and  _3
REMARK    2  A    between atoms: _3  and  _4
REMARK    3  A    between atoms: _3  and  _6
REMARK    4  A    between atoms: _6  and  _7
REMARK    5  A    between atoms: _7  and  _8
REMARK    6  A    between atoms: _13  and  _15
REMARK    7  A    between atoms: _15  and  _16
REMARK    8  A    between atoms: _15  and  _18
REMARK    9  A    between atoms: _18  and  _19
REMARK   10  A    between atoms: _22  and  _24
REMARK   11  A    between atoms: _24  and  _25
REMARK   12  A    between atoms: _24  and  _27
REMARK   13  A    between atoms: _27  and  _28
REMARK   14  A    between atoms: _31  and  _33
REMARK   15  A    between atoms: _33  and  _34
REMARK   16  A    between atoms: _36  and  _38
REMARK   17  A    between atoms: _38  and  _39
REMARK   18  A    between atoms: _38  and  _41
REMARK   19  A    between atoms: _41  and  _42
REMARK   20  A    between atoms: _42  and  _43
REMARK   21  A    between atoms: _46  and  _48
REMARK   22  A    between atoms: _48  and  _49
REMARK   23  A    between atoms: _51  and  _53
REMARK   24  A    between atoms: _53  and  _54
REMARK   25  A    between atoms: _53  and  _56
REMARK   26  A    between atoms: _56  and  _57
REMARK   27  A    between atoms: _62  and  _63
REMARK   28  A    between atoms: _65  and  _67
REMARK   29  A    between atoms: _67  and  _68
REMARK   30  A    between atoms: _70  and  _72
REMARK   31  A    between atoms: _72  and  _73
REMARK   32  A    between atoms: _72  and  _75
REMARK   33  A    between atoms: _75  and  _76
REMARK   34  A    between atoms: _76  and  _77
REMARK   35  A    between atoms: _80  and  _82
REMARK   36  A    between atoms: _82  and  _83
REMARK   37  A    between atoms: _82  and  _85
REMARK   38  A    between atoms: _88  and  _90
REMARK   39  A    between atoms: _90  and  _91
REMARK   40  A    between atoms: _90  and  _93
REMARK   41  A    between atoms: _93  and  _94
REMARK   42  A    between atoms: _94  and  _95
REMARK   43  A    between atoms: _100  and  _102
REMARK   44  A    between atoms: _102  and  _103
REMARK   45  A    between atoms: _102  and  _105
REMARK   46  A    between atoms: _105  and  _106
REMARK   47  A    between atoms: _109  and  _111
REMARK   48  A    between atoms: _111  and  _112
REMARK   49  A    between atoms: _115  and  _117
REMARK   50  A    between atoms: _117  and  _118
REMARK   51  A    between atoms: _121  and  _123
REMARK   52  A    between atoms: _123  and  _124
REMARK   53  A    between atoms: _123  and  _126
REMARK   54  A    between atoms: _129  and  _131
REMARK   55  A    between atoms: _131  and  _132
REMARK   56  A    between atoms: _135  and  _137
REMARK   57  A    between atoms: _137  and  _138
REMARK   58  A    between atoms: _137  and  _140
REMARK   59  A    between atoms: _143  and  _145
REMARK   60  A    between atoms: _145  and  _146
REMARK   61  A    between atoms: _145  and  _148
REMARK   62  A    between atoms: _148  and  _149
REMARK   63  A    between atoms: _149  and  _150
REMARK   64  A    between atoms: _150  and  _151
REMARK   65  A    between atoms: _151  and  _152
REMARK   66  A    between atoms: _156  and  _158
REMARK   67  A    between atoms: _158  and  _159
REMARK   68  A    between atoms: _158  and  _161
REMARK   69  A    between atoms: _161  and  _162
REMARK   70  A    between atoms: _165  and  _167
REMARK   71  A    between atoms: _167  and  _168
REMARK   72  A    between atoms: _167  and  _170
REMARK   73  A    between atoms: _173  and  _175
REMARK   74  A    between atoms: _175  and  _176
REMARK   75  A    between atoms: _175  and  _178
REMARK   76  A    between atoms: _178  and  _179
REMARK   77  A    between atoms: _179  and  _180
REMARK   78  A    between atoms: _183  and  _185
REMARK   79  A    between atoms: _185  and  _186
REMARK   80  A    between atoms: _185  and  _188
REMARK   81  A    between atoms: _188  and  _189
REMARK   82  A    between atoms: _194  and  _196
REMARK   83  A    between atoms: _196  and  _197
REMARK   84  A    between atoms: _196  and  _199
REMARK   85  A    between atoms: _202  and  _204
REMARK   86  A    between atoms: _204  and  _205
REMARK   87  A    between atoms: _204  and  _207
REMARK   88  A    between atoms: _207  and  _208
REMARK   89  A    between atoms: _208  and  _209
REMARK   90  A    between atoms: _209  and  _210
REMARK   91  A    between atoms: _210  and  _211
REMARK   92  A    between atoms: _215  and  _217
REMARK   93  A    between atoms: _217  and  _218
REMARK   94  A    between atoms: _217  and  _220
REMARK   95  A    between atoms: _220  and  _221
REMARK   96  A    between atoms: _226  and  _227
REMARK   97  A    between atoms: _229  and  _231
REMARK   98  A    between atoms: _231  and  _232
REMARK   99  A    between atoms: _231  and  _234
REMARK  100  A    between atoms: _234  and  _235
REMARK  101  A    between atoms: _238  and  _240
REMARK  102  A    between atoms: _240  and  _241
REMARK  103  A    between atoms: _240  and  _243
REMARK  104  A    between atoms: _243  and  _244
REMARK  105  A    between atoms: _250  and  _252
REMARK  106  A    between atoms: _252  and  _253
REMARK  107  A    between atoms: _252  and  _255
REMARK  108  A    between atoms: _255  and  _256
REMARK  109  A    between atoms: _259  and  _261
REMARK  110  A    between atoms: _261  and  _262
REMARK  111  A    between atoms: _261  and  _264
REMARK  112  A    between atoms: _264  and  _265
REMARK  113  A    between atoms: _265  and  _266
REMARK  114  A    between atoms: _269  and  _271
REMARK  115  A    between atoms: _271  and  _272
REMARK  116  A    between atoms: _271  and  _274
REMARK  117  A    between atoms: _274  and  _275
REMARK  118  A    between atoms: _280  and  _281
REMARK  119  A    between atoms: _283  and  _285
REMARK  120  A    between atoms: _285  and  _286
REMARK  121  A    between atoms: _285  and  _288
REMARK  122  A    between atoms: _290  and  _292
REMARK  123  A    between atoms: _292  and  _293
REMARK  124  A    between atoms: _292  and  _295
REMARK  125  A    between atoms: _295  and  _296
REMARK  126  A    between atoms: _298  and  _300
REMARK  127  A    between atoms: _300  and  _301
REMARK  128  A    between atoms: _303  and  _305
REMARK  129  A    between atoms: _305  and  _306
REMARK  130  A    between atoms: _308  and  _310
REMARK  131  A    between atoms: _310  and  _311
REMARK  132  A    between atoms: _310  and  _313
REMARK  133  A    between atoms: _313  and  _314
REMARK  134  A    between atoms: _314  and  _315
REMARK  135  A    between atoms: _318  and  _320
REMARK  136  A    between atoms: _320  and  _321
REMARK  137  A    between atoms: _320  and  _323
REMARK  138  A    between atoms: _323  and  _324
REMARK  139  A    between atoms: _327  and  _329
REMARK  140  A    between atoms: _329  and  _330
REMARK  141  A    between atoms: _329  and  _332
REMARK  142  A    between atoms: _332  and  _333
REMARK  143  A    between atoms: _339  and  _341
REMARK  144  A    between atoms: _341  and  _342
REMARK  145  A    between atoms: _341  and  _344
REMARK  146  A    between atoms: _344  and  _345
REMARK  147  A    between atoms: _348  and  _350
REMARK  148  A    between atoms: _350  and  _351
REMARK  149  A    between atoms: _350  and  _353
REMARK  150  A    between atoms: _353  and  _354
REMARK  151  A    between atoms: _359  and  _361
REMARK  152  A    between atoms: _361  and  _362
REMARK  153  A    between atoms: _361  and  _364
REMARK  154  A    between atoms: _364  and  _365
REMARK  155  A    between atoms: _368  and  _370
REMARK  156  A    between atoms: _370  and  _371
REMARK  157  A    between atoms: _370  and  _373
REMARK  158  A    between atoms: _373  and  _374
REMARK  159  A    between atoms: _374  and  _375
REMARK  160  A    between atoms: _375  and  _376
REMARK  161  A    between atoms: _376  and  _377
REMARK  162  A    between atoms: _382  and  _383
REMARK  163  A    between atoms: _388  and  _390
REMARK  164  A    between atoms: _390  and  _391
REMARK  165  A    between atoms: _390  and  _393
REMARK  166  A    between atoms: _393  and  _394
REMARK  167  A    between atoms: _394  and  _395
REMARK  168  A    between atoms: _398  and  _400
REMARK  169  A    between atoms: _400  and  _401
REMARK  170  A    between atoms: _400  and  _403
REMARK  171  A    between atoms: _403  and  _404
REMARK  172  A    between atoms: _409  and  _411
REMARK  173  A    between atoms: _411  and  _412
REMARK  174  A    between atoms: _411  and  _414
REMARK  175  A    between atoms: _414  and  _415
REMARK  176  A    between atoms: _418  and  _420
REMARK  177  A    between atoms: _420  and  _421
REMARK  178  A    between atoms: _420  and  _423
REMARK  179  A    between atoms: _423  and  _424
REMARK  180  A    between atoms: _427  and  _429
REMARK  181  A    between atoms: _429  and  _430
REMARK  182  A    between atoms: _429  and  _432
REMARK  183  A    between atoms: _432  and  _433
REMARK  184  A    between atoms: _436  and  _438
REMARK  185  A    between atoms: _438  and  _439
REMARK  186  A    between atoms: _438  and  _441
REMARK  187  A    between atoms: _441  and  _442
REMARK  188  A    between atoms: _445  and  _447
REMARK  189  A    between atoms: _447  and  _448
REMARK  190  A    between atoms: _447  and  _450
REMARK  191  A    between atoms: _450  and  _451
REMARK  192  A    between atoms: _451  and  _452
REMARK  193  A    between atoms: _452  and  _453
REMARK  194  A    between atoms: _453  and  _454
REMARK  195  A    between atoms: _458  and  _460
REMARK  196  A    between atoms: _460  and  _461
REMARK  197  A    between atoms: _460  and  _463
REMARK  198  A    between atoms: _463  and  _464
REMARK  199  A    between atoms: _467  and  _469
REMARK  200  A    between atoms: _469  and  _470
REMARK  201  A    between atoms: _469  and  _472
REMARK  202  A    between atoms: _472  and  _473
REMARK  203  A    between atoms: _475  and  _477
REMARK  204  A    between atoms: _477  and  _478
REMARK  205  A    between atoms: _477  and  _480
REMARK  206  A    between atoms: _480  and  _481
REMARK  207  A    between atoms: _484  and  _486
REMARK  208  A    between atoms: _486  and  _487
REMARK  209  A    between atoms: _486  and  _489
REMARK  210  A    between atoms: _489  and  _490
REMARK  211  A    between atoms: _496  and  _498
REMARK  212  A    between atoms: _498  and  _499
REMARK  213  A    between atoms: _501  and  _503
REMARK  214  A    between atoms: _503  and  _504
REMARK  215  A    between atoms: _503  and  _506
REMARK  216  A    between atoms: _506  and  _507
REMARK                            x       y       z     vdW  Elec       q    Type
REMARK                         _______ _______ _______ _____ _____    ______ ____
ROOT
ATOM      1  O   HOH     1      -1.709  11.169  26.598  0.00  0.00    +0.000 OA
ENDROOT
TORSDOF 0
REMARK  Name = ../refined-set-2016/1nvr/1nvr_pocket.pdb
REMARK  216 active torsions:
REMARK  status: ('A' for Active; 'I' for Inactive)
REMARK    1  A    between atoms: _1  and  _3
REMARK    2  A    between atoms: _3  and  _4
REMARK    3  A    between atoms: _3  and  _6
REMARK    4  A    between atoms: _6  and  _7
REMARK    5  A    between atoms: _7  and  _8
REMARK    6  A    between atoms: _13  and  _15
REMARK    7  A    between atoms: _15  and  _16
REMARK    8  A    between atoms: _15  and  _18
REMARK    9  A    between atoms: _18  and  _19
REMARK   10  A    between atoms: _22  and  _24
REMARK   11  A    between atoms: _24  and  _25
REMARK   12  A    between atoms: _24  and  _27
REMARK   13  A    between atoms: _27  and  _28
REMARK   14  A    between atoms: _31  and  _33
REMARK   15  A    between atoms: _33  and  _34
REMARK   16  A    between atoms: _36  and  _38
REMARK   17  A    between atoms: _38  and  _39
REMARK   18  A    between atoms: _38  and  _41
REMARK   19  A    between atoms: _41  and  _42
REMARK   20  A    between atoms: _42  and  _43
REMARK   21  A    between atoms: _46  and  _48
REMARK   22  A    between atoms: _48  and  _49
REMARK   23  A    between atoms: _51  and  _53
REMARK   24  A    between atoms: _53  and  _54
REMARK   25  A    between atoms: _53  and  _56
REMARK   26  A    between atoms: _56  and  _57
REMARK   27  A    between atoms: _62  and  _63
REMARK   28  A    between atoms: _65  and  _67
REMARK   29  A    between atoms: _67  and  _68
REMARK   30  A    between atoms: _70  and  _72
REMARK   31  A    between atoms: _72  and  _73
REMARK   32  A    between atoms: _72  and  _75
REMARK   33  A    between atoms: _75  and  _76
REMARK   34  A    between atoms: _76  and  _77
REMARK   35  A    between atoms: _80  and  _82
REMARK   36  A    between atoms: _82  and  _83
REMARK   37  A    between atoms: _82  and  _85
REMARK   38  A    between atoms: _88  and  _90
REMARK   39  A    between atoms: _90  and  _91
REMARK   40  A    between atoms: _90  and  _93
REMARK   41  A    between atoms: _93  and  _94
REMARK   42  A    between atoms: _94  and  _95
REMARK   43  A    between atoms: _100  and  _102
REMARK   44  A    between atoms: _102  and  _103
REMARK   45  A    between atoms: _102  and  _105
REMARK   46  A    between atoms: _105  and  _106
REMARK   47  A    between atoms: _109  and  _111
REMARK   48  A    between atoms: _111  and  _112
REMARK   49  A    between atoms: _115  and  _117
REMARK   50  A    between atoms: _117  and  _118
REMARK   51  A    between atoms: _121  and  _123
REMARK   52  A    between atoms: _123  and  _124
REMARK   53  A    between atoms: _123  and  _126
REMARK   54  A    between atoms: _129  and  _131
REMARK   55  A    between atoms: _131  and  _132
REMARK   56  A    between atoms: _135  and  _137
REMARK   57  A    between atoms: _137  and  _138
REMARK   58  A    between atoms: _137  and  _140
REMARK   59  A    between atoms: _143  and  _145
REMARK   60  A    between atoms: _145  and  _146
REMARK   61  A    between atoms: _145  and  _148
REMARK   62  A    between atoms: _148  and  _149
REMARK   63  A    between atoms: _149  and  _150
REMARK   64  A    between atoms: _150  and  _151
REMARK   65  A    between atoms: _151  and  _152
REMARK   66  A    between atoms: _156  and  _158
REMARK   67  A    between atoms: _158  and  _159
REMARK   68  A    between atoms: _158  and  _161
REMARK   69  A    between atoms: _161  and  _162
REMARK   70  A    between atoms: _165  and  _167
REMARK   71  A    between atoms: _167  and  _168
REMARK   72  A    between atoms: _167  and  _170
REMARK   73  A    between atoms: _173  and  _175
REMARK   74  A    between atoms: _175  and  _176
REMARK   75  A    between atoms: _175  and  _178
REMARK   76  A    between atoms: _178  and  _179
REMARK   77  A    between atoms: _179  and  _180
REMARK   78  A    between atoms: _183  and  _185
REMARK   79  A    between atoms: _185  and  _186
REMARK   80  A    between atoms: _185  and  _188
REMARK   81  A    between atoms: _188  and  _189
REMARK   82  A    between atoms: _194  and  _196
REMARK   83  A    between atoms: _196  and  _197
REMARK   84  A    between atoms: _196  and  _199
REMARK   85  A    between atoms: _202  and  _204
REMARK   86  A    between atoms: _204  and  _205
REMARK   87  A    between atoms: _204  and  _207
REMARK   88  A    between atoms: _207  and  _208
REMARK   89  A    between atoms: _208  and  _209
REMARK   90  A    between atoms: _209  and  _210
REMARK   91  A    between atoms: _210  and  _211
REMARK   92  A    between atoms: _215  and  _217
REMARK   93  A    between atoms: _217  and  _218
REMARK   94  A    between atoms: _217  and  _220
REMARK   95  A    between atoms: _220  and  _221
REMARK   96  A    between atoms: _226  and  _227
REMARK   97  A    between atoms: _229  and  _231
REMARK   98  A    between atoms: _231  and  _232
REMARK   99  A    between atoms: _231  and  _234
REMARK  100  A    between atoms: _234  and  _235
REMARK  101  A    between atoms: _238  and  _240
REMARK  102  A    between atoms: _240  and  _241
REMARK  103  A    between atoms: _240  and  _243
REMARK  104  A    between atoms: _243  and  _244
REMARK  105  A    between atoms: _250  and  _252
REMARK  106  A    between atoms: _252  and  _253
REMARK  107  A    between atoms: _252  and  _255
REMARK  108  A    between atoms: _255  and  _256
REMARK  109  A    between atoms: _259  and  _261
REMARK  110  A    between atoms: _261  and  _262
REMARK  111  A    between atoms: _261  and  _264
REMARK  112  A    between atoms: _264  and  _265
REMARK  113  A    between atoms: _265  and  _266
REMARK  114  A    between atoms: _269  and  _271
REMARK  115  A    between atoms: _271  and  _272
REMARK  116  A    between atoms: _271  and  _274
REMARK  117  A    between atoms: _274  and  _275
REMARK  118  A    between atoms: _280  and  _281
REMARK  119  A    between atoms: _283  and  _285
REMARK  120  A    between atoms: _285  and  _286
REMARK  121  A    between atoms: _285  and  _288
REMARK  122  A    between atoms: _290  and  _292
REMARK  123  A    between atoms: _292  and  _293
REMARK  124  A    between atoms: _292  and  _295
REMARK  125  A    between atoms: _295  and  _296
REMARK  126  A    between atoms: _298  and  _300
REMARK  127  A    between atoms: _300  and  _301
REMARK  128  A    between atoms: _303  and  _305
REMARK  129  A    between atoms: _305  and  _306
REMARK  130  A    between atoms: _308  and  _310
REMARK  131  A    between atoms: _310  and  _311
REMARK  132  A    between atoms: _310  and  _313
REMARK  133  A    between atoms: _313  and  _314
REMARK  134  A    between atoms: _314  and  _315
REMARK  135  A    between atoms: _318  and  _320
REMARK  136  A    between atoms: _320  and  _321
REMARK  137  A    between atoms: _320  and  _323
REMARK  138  A    between atoms: _323  and  _324
REMARK  139  A    between atoms: _327  and  _329
REMARK  140  A    between atoms: _329  and  _330
REMARK  141  A    between atoms: _329  and  _332
REMARK  142  A    between atoms: _332  and  _333
REMARK  143  A    between atoms: _339  and  _341
REMARK  144  A    between atoms: _341  and  _342
REMARK  145  A    between atoms: _341  and  _344
REMARK  146  A    between atoms: _344  and  _345
REMARK  147  A    between atoms: _348  and  _350
REMARK  148  A    between atoms: _350  and  _351
REMARK  149  A    between atoms: _350  and  _353
REMARK  150  A    between atoms: _353  and  _354
REMARK  151  A    between atoms: _359  and  _361
REMARK  152  A    between atoms: _361  and  _362
REMARK  153  A    between atoms: _361  and  _364
REMARK  154  A    between atoms: _364  and  _365
REMARK  155  A    between atoms: _368  and  _370
REMARK  156  A    between atoms: _370  and  _371
REMARK  157  A    between atoms: _370  and  _373
REMARK  158  A    between atoms: _373  and  _374
REMARK  159  A    between atoms: _374  and  _375
REMARK  160  A    between atoms: _375  and  _376
REMARK  161  A    between atoms: _376  and  _377
REMARK  162  A    between atoms: _382  and  _383
REMARK  163  A    between atoms: _388  and  _390
REMARK  164  A    between atoms: _390  and  _391
REMARK  165  A    between atoms: _390  and  _393
REMARK  166  A    between atoms: _393  and  _394
REMARK  167  A    between atoms: _394  and  _395
REMARK  168  A    between atoms: _398  and  _400
REMARK  169  A    between atoms: _400  and  _401
REMARK  170  A    between atoms: _400  and  _403
REMARK  171  A    between atoms: _403  and  _404
REMARK  172  A    between atoms: _409  and  _411
REMARK  173  A    between atoms: _411  and  _412
REMARK  174  A    between atoms: _411  and  _414
REMARK  175  A    between atoms: _414  and  _415
REMARK  176  A    between atoms: _418  and  _420
REMARK  177  A    between atoms: _420  and  _421
REMARK  178  A    between atoms: _420  and  _423
REMARK  179  A    between atoms: _423  and  _424
REMARK  180  A    between atoms: _427  and  _429
REMARK  181  A    between atoms: _429  and  _430
REMARK  182  A    between atoms: _429  and  _432
REMARK  183  A    between atoms: _432  and  _433
REMARK  184  A    between atoms: _436  and  _438
REMARK  185  A    between atoms: _438  and  _439
REMARK  186  A    between atoms: _438  and  _441
REMARK  187  A    between atoms: _441  and  _442
REMARK  188  A    between atoms: _445  and  _447
REMARK  189  A    between atoms: _447  and  _448
REMARK  190  A    between atoms: _447  and  _450
REMARK  191  A    between atoms: _450  and  _451
REMARK  192  A    between atoms: _451  and  _452
REMARK  193  A    between atoms: _452  and  _453
REMARK  194  A    between atoms: _453  and  _454
REMARK  195  A    between atoms: _458  and  _460
REMARK  196  A    between atoms: _460  and  _461
REMARK  197  A    between atoms: _460  and  _463
REMARK  198  A    between atoms: _463  and  _464
REMARK  199  A    between atoms: _467  and  _469
REMARK  200  A    between atoms: _469  and  _470
REMARK  201  A    between atoms: _469  and  _472
REMARK  202  A    between atoms: _472  and  _473
REMARK  203  A    between atoms: _475  and  _477
REMARK  204  A    between atoms: _477  and  _478
REMARK  205  A    between atoms: _477  and  _480
REMARK  206  A    between atoms: _480  and  _481
REMARK  207  A    between atoms: _484  and  _486
REMARK  208  A    between atoms: _486  and  _487
REMARK  209  A    between atoms: _486  and  _489
REMARK  210  A    between atoms: _489  and  _490
REMARK  211  A    between atoms: _496  and  _498
REMARK  212  A    between atoms: _498  and  _499
REMARK  213  A    between atoms: _501  and  _503
REMARK  214  A    between atoms: _503  and  _504
REMARK  215  A    between atoms: _503  and  _506
REMARK  216  A    between atoms: _506  and  _507
REMARK                            x       y       z     vdW  Elec       q    Type
REMARK                         _______ _______ _______ _____ _____    ______ ____
ROOT
ATOM      1  O   HOH     1      -2.140   4.635  16.825  0.00  0.00    +0.000 OA
ENDROOT
TORSDOF 0
REMARK  Name = ../refined-set-2016/1nvr/1nvr_pocket.pdb
REMARK  216 active torsions:
REMARK  status: ('A' for Active; 'I' for Inactive)
REMARK    1  A    between atoms: _1  and  _3
REMARK    2  A    between atoms: _3  and  _4
REMARK    3  A    between atoms: _3  and  _6
REMARK    4  A    between atoms: _6  and  _7
REMARK    5  A    between atoms: _7  and  _8
REMARK    6  A    between atoms: _13  and  _15
REMARK    7  A    between atoms: _15  and  _16
REMARK    8  A    between atoms: _15  and  _18
REMARK    9  A    between atoms: _18  and  _19
REMARK   10  A    between atoms: _22  and  _24
REMARK   11  A    between atoms: _24  and  _25
REMARK   12  A    between atoms: _24  and  _27
REMARK   13  A    between atoms: _27  and  _28
REMARK   14  A    between atoms: _31  and  _33
REMARK   15  A    between atoms: _33  and  _34
REMARK   16  A    between atoms: _36  and  _38
REMARK   17  A    between atoms: _38  and  _39
REMARK   18  A    between atoms: _38  and  _41
REMARK   19  A    between atoms: _41  and  _42
REMARK   20  A    between atoms: _42  and  _43
REMARK   21  A    between atoms: _46  and  _48
REMARK   22  A    between atoms: _48  and  _49
REMARK   23  A    between atoms: _51  and  _53
REMARK   24  A    between atoms: _53  and  _54
REMARK   25  A    between atoms: _53  and  _56
REMARK   26  A    between atoms: _56  and  _57
REMARK   27  A    between atoms: _62  and  _63
REMARK   28  A    between atoms: _65  and  _67
REMARK   29  A    between atoms: _67  and  _68
REMARK   30  A    between atoms: _70  and  _72
REMARK   31  A    between atoms: _72  and  _73
REMARK   32  A    between atoms: _72  and  _75
REMARK   33  A    between atoms: _75  and  _76
REMARK   34  A    between atoms: _76  and  _77
REMARK   35  A    between atoms: _80  and  _82
REMARK   36  A    between atoms: _82  and  _83
REMARK   37  A    between atoms: _82  and  _85
REMARK   38  A    between atoms: _88  and  _90
REMARK   39  A    between atoms: _90  and  _91
REMARK   40  A    between atoms: _90  and  _93
REMARK   41  A    between atoms: _93  and  _94
REMARK   42  A    between atoms: _94  and  _95
REMARK   43  A    between atoms: _100  and  _102
REMARK   44  A    between atoms: _102  and  _103
REMARK   45  A    between atoms: _102  and  _105
REMARK   46  A    between atoms: _105  and  _106
REMARK   47  A    between atoms: _109  and  _111
REMARK   48  A    between atoms: _111  and  _112
REMARK   49  A    between atoms: _115  and  _117
REMARK   50  A    between atoms: _117  and  _118
REMARK   51  A    between atoms: _121  and  _123
REMARK   52  A    between atoms: _123  and  _124
REMARK   53  A    between atoms: _123  and  _126
REMARK   54  A    between atoms: _129  and  _131
REMARK   55  A    between atoms: _131  and  _132
REMARK   56  A    between atoms: _135  and  _137
REMARK   57  A    between atoms: _137  and  _138
REMARK   58  A    between atoms: _137  and  _140
REMARK   59  A    between atoms: _143  and  _145
REMARK   60  A    between atoms: _145  and  _146
REMARK   61  A    between atoms: _145  and  _148
REMARK   62  A    between atoms: _148  and  _149
REMARK   63  A    between atoms: _149  and  _150
REMARK   64  A    between atoms: _150  and  _151
REMARK   65  A    between atoms: _151  and  _152
REMARK   66  A    between atoms: _156  and  _158
REMARK   67  A    between atoms: _158  and  _159
REMARK   68  A    between atoms: _158  and  _161
REMARK   69  A    between atoms: _161  and  _162
REMARK   70  A    between atoms: _165  and  _167
REMARK   71  A    between atoms: _167  and  _168
REMARK   72  A    between atoms: _167  and  _170
REMARK   73  A    between atoms: _173  and  _175
REMARK   74  A    between atoms: _175  and  _176
REMARK   75  A    between atoms: _175  and  _178
REMARK   76  A    between atoms: _178  and  _179
REMARK   77  A    between atoms: _179  and  _180
REMARK   78  A    between atoms: _183  and  _185
REMARK   79  A    between atoms: _185  and  _186
REMARK   80  A    between atoms: _185  and  _188
REMARK   81  A    between atoms: _188  and  _189
REMARK   82  A    between atoms: _194  and  _196
REMARK   83  A    between atoms: _196  and  _197
REMARK   84  A    between atoms: _196  and  _199
REMARK   85  A    between atoms: _202  and  _204
REMARK   86  A    between atoms: _204  and  _205
REMARK   87  A    between atoms: _204  and  _207
REMARK   88  A    between atoms: _207  and  _208
REMARK   89  A    between atoms: _208  and  _209
REMARK   90  A    between atoms: _209  and  _210
REMARK   91  A    between atoms: _210  and  _211
REMARK   92  A    between atoms: _215  and  _217
REMARK   93  A    between atoms: _217  and  _218
REMARK   94  A    between atoms: _217  and  _220
REMARK   95  A    between atoms: _220  and  _221
REMARK   96  A    between atoms: _226  and  _227
REMARK   97  A    between atoms: _229  and  _231
REMARK   98  A    between atoms: _231  and  _232
REMARK   99  A    between atoms: _231  and  _234
REMARK  100  A    between atoms: _234  and  _235
REMARK  101  A    between atoms: _238  and  _240
REMARK  102  A    between atoms: _240  and  _241
REMARK  103  A    between atoms: _240  and  _243
REMARK  104  A    between atoms: _243  and  _244
REMARK  105  A    between atoms: _250  and  _252
REMARK  106  A    between atoms: _252  and  _253
REMARK  107  A    between atoms: _252  and  _255
REMARK  108  A    between atoms: _255  and  _256
REMARK  109  A    between atoms: _259  and  _261
REMARK  110  A    between atoms: _261  and  _262
REMARK  111  A    between atoms: _261  and  _264
REMARK  112  A    between atoms: _264  and  _265
REMARK  113  A    between atoms: _265  and  _266
REMARK  114  A    between atoms: _269  and  _271
REMARK  115  A    between atoms: _271  and  _272
REMARK  116  A    between atoms: _271  and  _274
REMARK  117  A    between atoms: _274  and  _275
REMARK  118  A    between atoms: _280  and  _281
REMARK  119  A    between atoms: _283  and  _285
REMARK  120  A    between atoms: _285  and  _286
REMARK  121  A    between atoms: _285  and  _288
REMARK  122  A    between atoms: _290  and  _292
REMARK  123  A    between atoms: _292  and  _293
REMARK  124  A    between atoms: _292  and  _295
REMARK  125  A    between atoms: _295  and  _296
REMARK  126  A    between atoms: _298  and  _300
REMARK  127  A    between atoms: _300  and  _301
REMARK  128  A    between atoms: _303  and  _305
REMARK  129  A    between atoms: _305  and  _306
REMARK  130  A    between atoms: _308  and  _310
REMARK  131  A    between atoms: _310  and  _311
REMARK  132  A    between atoms: _310  and  _313
REMARK  133  A    between atoms: _313  and  _314
REMARK  134  A    between atoms: _314  and  _315
REMARK  135  A    between atoms: _318  and  _320
REMARK  136  A    between atoms: _320  and  _321
REMARK  137  A    between atoms: _320  and  _323
REMARK  138  A    between atoms: _323  and  _324
REMARK  139  A    between atoms: _327  and  _329
REMARK  140  A    between atoms: _329  and  _330
REMARK  141  A    between atoms: _329  and  _332
REMARK  142  A    between atoms: _332  and  _333
REMARK  143  A    between atoms: _339  and  _341
REMARK  144  A    between atoms: _341  and  _342
REMARK  145  A    between atoms: _341  and  _344
REMARK  146  A    between atoms: _344  and  _345
REMARK  147  A    between atoms: _348  and  _350
REMARK  148  A    between atoms: _350  and  _351
REMARK  149  A    between atoms: _350  and  _353
REMARK  150  A    between atoms: _353  and  _354
REMARK  151  A    between atoms: _359  and  _361
REMARK  152  A    between atoms: _361  and  _362
REMARK  153  A    between atoms: _361  and  _364
REMARK  154  A    between atoms: _364  and  _365
REMARK  155  A    between atoms: _368  and  _370
REMARK  156  A    between atoms: _370  and  _371
REMARK  157  A    between atoms: _370  and  _373
REMARK  158  A    between atoms: _373  and  _374
REMARK  159  A    between atoms: _374  and  _375
REMARK  160  A    between atoms: _375  and  _376
REMARK  161  A    between atoms: _376  and  _377
REMARK  162  A    between atoms: _382  and  _383
REMARK  163  A    between atoms: _388  and  _390
REMARK  164  A    between atoms: _390  and  _391
REMARK  165  A    between atoms: _390  and  _393
REMARK  166  A    between atoms: _393  and  _394
REMARK  167  A    between atoms: _394  and  _395
REMARK  168  A    between atoms: _398  and  _400
REMARK  169  A    between atoms: _400  and  _401
REMARK  170  A    between atoms: _400  and  _403
REMARK  171  A    between atoms: _403  and  _404
REMARK  172  A    between atoms: _409  and  _411
REMARK  173  A    between atoms: _411  and  _412
REMARK  174  A    between atoms: _411  and  _414
REMARK  175  A    between atoms: _414  and  _415
REMARK  176  A    between atoms: _418  and  _420
REMARK  177  A    between atoms: _420  and  _421
REMARK  178  A    between atoms: _420  and  _423
REMARK  179  A    between atoms: _423  and  _424
REMARK  180  A    between atoms: _427  and  _429
REMARK  181  A    between atoms: _429  and  _430
REMARK  182  A    between atoms: _429  and  _432
REMARK  183  A    between atoms: _432  and  _433
REMARK  184  A    between atoms: _436  and  _438
REMARK  185  A    between atoms: _438  and  _439
REMARK  186  A    between atoms: _438  and  _441
REMARK  187  A    between atoms: _441  and  _442
REMARK  188  A    between atoms: _445  and  _447
REMARK  189  A    between atoms: _447  and  _448
REMARK  190  A    between atoms: _447  and  _450
REMARK  191  A    between atoms: _450  and  _451
REMARK  192  A    between atoms: _451  and  _452
REMARK  193  A    between atoms: _452  and  _453
REMARK  194  A    between atoms: _453  and  _454
REMARK  195  A    between atoms: _458  and  _460
REMARK  196  A    between atoms: _460  and  _461
REMARK  197  A    between atoms: _460  and  _463
REMARK  198  A    between atoms: _463  and  _464
REMARK  199  A    between atoms: _467  and  _469
REMARK  200  A    between atoms: _469  and  _470
REMARK  201  A    between atoms: _469  and  _472
REMARK  202  A    between atoms: _472  and  _473
REMARK  203  A    between atoms: _475  and  _477
REMARK  204  A    between atoms: _477  and  _478
REMARK  205  A    between atoms: _477  and  _480
REMARK  206  A    between atoms: _480  and  _481
REMARK  207  A    between atoms: _484  and  _486
REMARK  208  A    between atoms: _486  and  _487
REMARK  209  A    between atoms: _486  and  _489
REMARK  210  A    between atoms: _489  and  _490
REMARK  211  A    between atoms: _496  and  _498
REMARK  212  A    between atoms: _498  and  _499
REMARK  213  A    between atoms: _501  and  _503
REMARK  214  A    between atoms: _503  and  _504
REMARK  215  A    between atoms: _503  and  _506
REMARK  216  A    between atoms: _506  and  _507
REMARK                            x       y       z     vdW  Elec       q    Type
REMARK                         _______ _______ _______ _____ _____    ______ ____
ROOT
ATOM      1  O   HOH     1       6.489   1.243   6.278  0.00  0.00    +0.000 OA
ENDROOT
TORSDOF 0
REMARK  Name = ../refined-set-2016/1nvr/1nvr_pocket.pdb
REMARK  216 active torsions:
REMARK  status: ('A' for Active; 'I' for Inactive)
REMARK    1  A    between atoms: _1  and  _3
REMARK    2  A    between atoms: _3  and  _4
REMARK    3  A    between atoms: _3  and  _6
REMARK    4  A    between atoms: _6  and  _7
REMARK    5  A    between atoms: _7  and  _8
REMARK    6  A    between atoms: _13  and  _15
REMARK    7  A    between atoms: _15  and  _16
REMARK    8  A    between atoms: _15  and  _18
REMARK    9  A    between atoms: _18  and  _19
REMARK   10  A    between atoms: _22  and  _24
REMARK   11  A    between atoms: _24  and  _25
REMARK   12  A    between atoms: _24  and  _27
REMARK   13  A    between atoms: _27  and  _28
REMARK   14  A    between atoms: _31  and  _33
REMARK   15  A    between atoms: _33  and  _34
REMARK   16  A    between atoms: _36  and  _38
REMARK   17  A    between atoms: _38  and  _39
REMARK   18  A    between atoms: _38  and  _41
REMARK   19  A    between atoms: _41  and  _42
REMARK   20  A    between atoms: _42  and  _43
REMARK   21  A    between atoms: _46  and  _48
REMARK   22  A    between atoms: _48  and  _49
REMARK   23  A    between atoms: _51  and  _53
REMARK   24  A    between atoms: _53  and  _54
REMARK   25  A    between atoms: _53  and  _56
REMARK   26  A    between atoms: _56  and  _57
REMARK   27  A    between atoms: _62  and  _63
REMARK   28  A    between atoms: _65  and  _67
REMARK   29  A    between atoms: _67  and  _68
REMARK   30  A    between atoms: _70  and  _72
REMARK   31  A    between atoms: _72  and  _73
REMARK   32  A    between atoms: _72  and  _75
REMARK   33  A    between atoms: _75  and  _76
REMARK   34  A    between atoms: _76  and  _77
REMARK   35  A    between atoms: _80  and  _82
REMARK   36  A    between atoms: _82  and  _83
REMARK   37  A    between atoms: _82  and  _85
REMARK   38  A    between atoms: _88  and  _90
REMARK   39  A    between atoms: _90  and  _91
REMARK   40  A    between atoms: _90  and  _93
REMARK   41  A    between atoms: _93  and  _94
REMARK   42  A    between atoms: _94  and  _95
REMARK   43  A    between atoms: _100  and  _102
REMARK   44  A    between atoms: _102  and  _103
REMARK   45  A    between atoms: _102  and  _105
REMARK   46  A    between atoms: _105  and  _106
REMARK   47  A    between atoms: _109  and  _111
REMARK   48  A    between atoms: _111  and  _112
REMARK   49  A    between atoms: _115  and  _117
REMARK   50  A    between atoms: _117  and  _118
REMARK   51  A    between atoms: _121  and  _123
REMARK   52  A    between atoms: _123  and  _124
REMARK   53  A    between atoms: _123  and  _126
REMARK   54  A    between atoms: _129  and  _131
REMARK   55  A    between atoms: _131  and  _132
REMARK   56  A    between atoms: _135  and  _137
REMARK   57  A    between atoms: _137  and  _138
REMARK   58  A    between atoms: _137  and  _140
REMARK   59  A    between atoms: _143  and  _145
REMARK   60  A    between atoms: _145  and  _146
REMARK   61  A    between atoms: _145  and  _148
REMARK   62  A    between atoms: _148  and  _149
REMARK   63  A    between atoms: _149  and  _150
REMARK   64  A    between atoms: _150  and  _151
REMARK   65  A    between atoms: _151  and  _152
REMARK   66  A    between atoms: _156  and  _158
REMARK   67  A    between atoms: _158  and  _159
REMARK   68  A    between atoms: _158  and  _161
REMARK   69  A    between atoms: _161  and  _162
REMARK   70  A    between atoms: _165  and  _167
REMARK   71  A    between atoms: _167  and  _168
REMARK   72  A    between atoms: _167  and  _170
REMARK   73  A    between atoms: _173  and  _175
REMARK   74  A    between atoms: _175  and  _176
REMARK   75  A    between atoms: _175  and  _178
REMARK   76  A    between atoms: _178  and  _179
REMARK   77  A    between atoms: _179  and  _180
REMARK   78  A    between atoms: _183  and  _185
REMARK   79  A    between atoms: _185  and  _186
REMARK   80  A    between atoms: _185  and  _188
REMARK   81  A    between atoms: _188  and  _189
REMARK   82  A    between atoms: _194  and  _196
REMARK   83  A    between atoms: _196  and  _197
REMARK   84  A    between atoms: _196  and  _199
REMARK   85  A    between atoms: _202  and  _204
REMARK   86  A    between atoms: _204  and  _205
REMARK   87  A    between atoms: _204  and  _207
REMARK   88  A    between atoms: _207  and  _208
REMARK   89  A    between atoms: _208  and  _209
REMARK   90  A    between atoms: _209  and  _210
REMARK   91  A    between atoms: _210  and  _211
REMARK   92  A    between atoms: _215  and  _217
REMARK   93  A    between atoms: _217  and  _218
REMARK   94  A    between atoms: _217  and  _220
REMARK   95  A    between atoms: _220  and  _221
REMARK   96  A    between atoms: _226  and  _227
REMARK   97  A    between atoms: _229  and  _231
REMARK   98  A    between atoms: _231  and  _232
REMARK   99  A    between atoms: _231  and  _234
REMARK  100  A    between atoms: _234  and  _235
REMARK  101  A    between atoms: _238  and  _240
REMARK  102  A    between atoms: _240  and  _241
REMARK  103  A    between atoms: _240  and  _243
REMARK  104  A    between atoms: _243  and  _244
REMARK  105  A    between atoms: _250  and  _252
REMARK  106  A    between atoms: _252  and  _253
REMARK  107  A    between atoms: _252  and  _255
REMARK  108  A    between atoms: _255  and  _256
REMARK  109  A    between atoms: _259  and  _261
REMARK  110  A    between atoms: _261  and  _262
REMARK  111  A    between atoms: _261  and  _264
REMARK  112  A    between atoms: _264  and  _265
REMARK  113  A    between atoms: _265  and  _266
REMARK  114  A    between atoms: _269  and  _271
REMARK  115  A    between atoms: _271  and  _272
REMARK  116  A    between atoms: _271  and  _274
REMARK  117  A    between atoms: _274  and  _275
REMARK  118  A    between atoms: _280  and  _281
REMARK  119  A    between atoms: _283  and  _285
REMARK  120  A    between atoms: _285  and  _286
REMARK  121  A    between atoms: _285  and  _288
REMARK  122  A    between atoms: _290  and  _292
REMARK  123  A    between atoms: _292  and  _293
REMARK  124  A    between atoms: _292  and  _295
REMARK  125  A    between atoms: _295  and  _296
REMARK  126  A    between atoms: _298  and  _300
REMARK  127  A    between atoms: _300  and  _301
REMARK  128  A    between atoms: _303  and  _305
REMARK  129  A    between atoms: _305  and  _306
REMARK  130  A    between atoms: _308  and  _310
REMARK  131  A    between atoms: _310  and  _311
REMARK  132  A    between atoms: _310  and  _313
REMARK  133  A    between atoms: _313  and  _314
REMARK  134  A    between atoms: _314  and  _315
REMARK  135  A    between atoms: _318  and  _320
REMARK  136  A    between atoms: _320  and  _321
REMARK  137  A    between atoms: _320  and  _323
REMARK  138  A    between atoms: _323  and  _324
REMARK  139  A    between atoms: _327  and  _329
REMARK  140  A    between atoms: _329  and  _330
REMARK  141  A    between atoms: _329  and  _332
REMARK  142  A    between atoms: _332  and  _333
REMARK  143  A    between atoms: _339  and  _341
REMARK  144  A    between atoms: _341  and  _342
REMARK  145  A    between atoms: _341  and  _344
REMARK  146  A    between atoms: _344  and  _345
REMARK  147  A    between atoms: _348  and  _350
REMARK  148  A    between atoms: _350  and  _351
REMARK  149  A    between atoms: _350  and  _353
REMARK  150  A    between atoms: _353  and  _354
REMARK  151  A    between atoms: _359  and  _361
REMARK  152  A    between atoms: _361  and  _362
REMARK  153  A    between atoms: _361  and  _364
REMARK  154  A    between atoms: _364  and  _365
REMARK  155  A    between atoms: _368  and  _370
REMARK  156  A    between atoms: _370  and  _371
REMARK  157  A    between atoms: _370  and  _373
REMARK  158  A    between atoms: _373  and  _374
REMARK  159  A    between atoms: _374  and  _375
REMARK  160  A    between atoms: _375  and  _376
REMARK  161  A    between atoms: _376  and  _377
REMARK  162  A    between atoms: _382  and  _383
REMARK  163  A    between atoms: _388  and  _390
REMARK  164  A    between atoms: _390  and  _391
REMARK  165  A    between atoms: _390  and  _393
REMARK  166  A    between atoms: _393  and  _394
REMARK  167  A    between atoms: _394  and  _395
REMARK  168  A    between atoms: _398  and  _400
REMARK  169  A    between atoms: _400  and  _401
REMARK  170  A    between atoms: _400  and  _403
REMARK  171  A    between atoms: _403  and  _404
REMARK  172  A    between atoms: _409  and  _411
REMARK  173  A    between atoms: _411  and  _412
REMARK  174  A    between atoms: _411  and  _414
REMARK  175  A    between atoms: _414  and  _415
REMARK  176  A    between atoms: _418  and  _420
REMARK  177  A    between atoms: _420  and  _421
REMARK  178  A    between atoms: _420  and  _423
REMARK  179  A    between atoms: _423  and  _424
REMARK  180  A    between atoms: _427  and  _429
REMARK  181  A    between atoms: _429  and  _430
REMARK  182  A    between atoms: _429  and  _432
REMARK  183  A    between atoms: _432  and  _433
REMARK  184  A    between atoms: _436  and  _438
REMARK  185  A    between atoms: _438  and  _439
REMARK  186  A    between atoms: _438  and  _441
REMARK  187  A    between atoms: _441  and  _442
REMARK  188  A    between atoms: _445  and  _447
REMARK  189  A    between atoms: _447  and  _448
REMARK  190  A    between atoms: _447  and  _450
REMARK  191  A    between atoms: _450  and  _451
REMARK  192  A    between atoms: _451  and  _452
REMARK  193  A    between atoms: _452  and  _453
REMARK  194  A    between atoms: _453  and  _454
REMARK  195  A    between atoms: _458  and  _460
REMARK  196  A    between atoms: _460  and  _461
REMARK  197  A    between atoms: _460  and  _463
REMARK  198  A    between atoms: _463  and  _464
REMARK  199  A    between atoms: _467  and  _469
REMARK  200  A    between atoms: _469  and  _470
REMARK  201  A    between atoms: _469  and  _472
REMARK  202  A    between atoms: _472  and  _473
REMARK  203  A    between atoms: _475  and  _477
REMARK  204  A    between atoms: _477  and  _478
REMARK  205  A    between atoms: _477  and  _480
REMARK  206  A    between atoms: _480  and  _481
REMARK  207  A    between atoms: _484  and  _486
REMARK  208  A    between atoms: _486  and  _487
REMARK  209  A    between atoms: _486  and  _489
REMARK  210  A    between atoms: _489  and  _490
REMARK  211  A    between atoms: _496  and  _498
REMARK  212  A    between atoms: _498  and  _499
REMARK  213  A    between atoms: _501  and  _503
REMARK  214  A    between atoms: _503  and  _504
REMARK  215  A    between atoms: _503  and  _506
REMARK  216  A    between atoms: _506  and  _507
REMARK                            x       y       z     vdW  Elec       q    Type
REMARK                         _______ _______ _______ _____ _____    ______ ____
ROOT
ATOM      1  O   HOH     1       3.015   1.512   9.327  0.00  0.00    +0.000 OA
ENDROOT
TORSDOF 0
REMARK  Name = ../refined-set-2016/1nvr/1nvr_pocket.pdb
REMARK  216 active torsions:
REMARK  status: ('A' for Active; 'I' for Inactive)
REMARK    1  A    between atoms: _1  and  _3
REMARK    2  A    between atoms: _3  and  _4
REMARK    3  A    between atoms: _3  and  _6
REMARK    4  A    between atoms: _6  and  _7
REMARK    5  A    between atoms: _7  and  _8
REMARK    6  A    between atoms: _13  and  _15
REMARK    7  A    between atoms: _15  and  _16
REMARK    8  A    between atoms: _15  and  _18
REMARK    9  A    between atoms: _18  and  _19
REMARK   10  A    between atoms: _22  and  _24
REMARK   11  A    between atoms: _24  and  _25
REMARK   12  A    between atoms: _24  and  _27
REMARK   13  A    between atoms: _27  and  _28
REMARK   14  A    between atoms: _31  and  _33
REMARK   15  A    between atoms: _33  and  _34
REMARK   16  A    between atoms: _36  and  _38
REMARK   17  A    between atoms: _38  and  _39
REMARK   18  A    between atoms: _38  and  _41
REMARK   19  A    between atoms: _41  and  _42
REMARK   20  A    between atoms: _42  and  _43
REMARK   21  A    between atoms: _46  and  _48
REMARK   22  A    between atoms: _48  and  _49
REMARK   23  A    between atoms: _51  and  _53
REMARK   24  A    between atoms: _53  and  _54
REMARK   25  A    between atoms: _53  and  _56
REMARK   26  A    between atoms: _56  and  _57
REMARK   27  A    between atoms: _62  and  _63
REMARK   28  A    between atoms: _65  and  _67
REMARK   29  A    between atoms: _67  and  _68
REMARK   30  A    between atoms: _70  and  _72
REMARK   31  A    between atoms: _72  and  _73
REMARK   32  A    between atoms: _72  and  _75
REMARK   33  A    between atoms: _75  and  _76
REMARK   34  A    between atoms: _76  and  _77
REMARK   35  A    between atoms: _80  and  _82
REMARK   36  A    between atoms: _82  and  _83
REMARK   37  A    between atoms: _82  and  _85
REMARK   38  A    between atoms: _88  and  _90
REMARK   39  A    between atoms: _90  and  _91
REMARK   40  A    between atoms: _90  and  _93
REMARK   41  A    between atoms: _93  and  _94
REMARK   42  A    between atoms: _94  and  _95
REMARK   43  A    between atoms: _100  and  _102
REMARK   44  A    between atoms: _102  and  _103
REMARK   45  A    between atoms: _102  and  _105
REMARK   46  A    between atoms: _105  and  _106
REMARK   47  A    between atoms: _109  and  _111
REMARK   48  A    between atoms: _111  and  _112
REMARK   49  A    between atoms: _115  and  _117
REMARK   50  A    between atoms: _117  and  _118
REMARK   51  A    between atoms: _121  and  _123
REMARK   52  A    between atoms: _123  and  _124
REMARK   53  A    between atoms: _123  and  _126
REMARK   54  A    between atoms: _129  and  _131
REMARK   55  A    between atoms: _131  and  _132
REMARK   56  A    between atoms: _135  and  _137
REMARK   57  A    between atoms: _137  and  _138
REMARK   58  A    between atoms: _137  and  _140
REMARK   59  A    between atoms: _143  and  _145
REMARK   60  A    between atoms: _145  and  _146
REMARK   61  A    between atoms: _145  and  _148
REMARK   62  A    between atoms: _148  and  _149
REMARK   63  A    between atoms: _149  and  _150
REMARK   64  A    between atoms: _150  and  _151
REMARK   65  A    between atoms: _151  and  _152
REMARK   66  A    between atoms: _156  and  _158
REMARK   67  A    between atoms: _158  and  _159
REMARK   68  A    between atoms: _158  and  _161
REMARK   69  A    between atoms: _161  and  _162
REMARK   70  A    between atoms: _165  and  _167
REMARK   71  A    between atoms: _167  and  _168
REMARK   72  A    between atoms: _167  and  _170
REMARK   73  A    between atoms: _173  and  _175
REMARK   74  A    between atoms: _175  and  _176
REMARK   75  A    between atoms: _175  and  _178
REMARK   76  A    between atoms: _178  and  _179
REMARK   77  A    between atoms: _179  and  _180
REMARK   78  A    between atoms: _183  and  _185
REMARK   79  A    between atoms: _185  and  _186
REMARK   80  A    between atoms: _185  and  _188
REMARK   81  A    between atoms: _188  and  _189
REMARK   82  A    between atoms: _194  and  _196
REMARK   83  A    between atoms: _196  and  _197
REMARK   84  A    between atoms: _196  and  _199
REMARK   85  A    between atoms: _202  and  _204
REMARK   86  A    between atoms: _204  and  _205
REMARK   87  A    between atoms: _204  and  _207
REMARK   88  A    between atoms: _207  and  _208
REMARK   89  A    between atoms: _208  and  _209
REMARK   90  A    between atoms: _209  and  _210
REMARK   91  A    between atoms: _210  and  _211
REMARK   92  A    between atoms: _215  and  _217
REMARK   93  A    between atoms: _217  and  _218
REMARK   94  A    between atoms: _217  and  _220
REMARK   95  A    between atoms: _220  and  _221
REMARK   96  A    between atoms: _226  and  _227
REMARK   97  A    between atoms: _229  and  _231
REMARK   98  A    between atoms: _231  and  _232
REMARK   99  A    between atoms: _231  and  _234
REMARK  100  A    between atoms: _234  and  _235
REMARK  101  A    between atoms: _238  and  _240
REMARK  102  A    between atoms: _240  and  _241
REMARK  103  A    between atoms: _240  and  _243
REMARK  104  A    between atoms: _243  and  _244
REMARK  105  A    between atoms: _250  and  _252
REMARK  106  A    between atoms: _252  and  _253
REMARK  107  A    between atoms: _252  and  _255
REMARK  108  A    between atoms: _255  and  _256
REMARK  109  A    between atoms: _259  and  _261
REMARK  110  A    between atoms: _261  and  _262
REMARK  111  A    between atoms: _261  and  _264
REMARK  112  A    between atoms: _264  and  _265
REMARK  113  A    between atoms: _265  and  _266
REMARK  114  A    between atoms: _269  and  _271
REMARK  115  A    between atoms: _271  and  _272
REMARK  116  A    between atoms: _271  and  _274
REMARK  117  A    between atoms: _274  and  _275
REMARK  118  A    between atoms: _280  and  _281
REMARK  119  A    between atoms: _283  and  _285
REMARK  120  A    between atoms: _285  and  _286
REMARK  121  A    between atoms: _285  and  _288
REMARK  122  A    between atoms: _290  and  _292
REMARK  123  A    between atoms: _292  and  _293
REMARK  124  A    between atoms: _292  and  _295
REMARK  125  A    between atoms: _295  and  _296
REMARK  126  A    between atoms: _298  and  _300
REMARK  127  A    between atoms: _300  and  _301
REMARK  128  A    between atoms: _303  and  _305
REMARK  129  A    between atoms: _305  and  _306
REMARK  130  A    between atoms: _308  and  _310
REMARK  131  A    between atoms: _310  and  _311
REMARK  132  A    between atoms: _310  and  _313
REMARK  133  A    between atoms: _313  and  _314
REMARK  134  A    between atoms: _314  and  _315
REMARK  135  A    between atoms: _318  and  _320
REMARK  136  A    between atoms: _320  and  _321
REMARK  137  A    between atoms: _320  and  _323
REMARK  138  A    between atoms: _323  and  _324
REMARK  139  A    between atoms: _327  and  _329
REMARK  140  A    between atoms: _329  and  _330
REMARK  141  A    between atoms: _329  and  _332
REMARK  142  A    between atoms: _332  and  _333
REMARK  143  A    between atoms: _339  and  _341
REMARK  144  A    between atoms: _341  and  _342
REMARK  145  A    between atoms: _341  and  _344
REMARK  146  A    between atoms: _344  and  _345
REMARK  147  A    between atoms: _348  and  _350
REMARK  148  A    between atoms: _350  and  _351
REMARK  149  A    between atoms: _350  and  _353
REMARK  150  A    between atoms: _353  and  _354
REMARK  151  A    between atoms: _359  and  _361
REMARK  152  A    between atoms: _361  and  _362
REMARK  153  A    between atoms: _361  and  _364
REMARK  154  A    between atoms: _364  and  _365
REMARK  155  A    between atoms: _368  and  _370
REMARK  156  A    between atoms: _370  and  _371
REMARK  157  A    between atoms: _370  and  _373
REMARK  158  A    between atoms: _373  and  _374
REMARK  159  A    between atoms: _374  and  _375
REMARK  160  A    between atoms: _375  and  _376
REMARK  161  A    between atoms: _376  and  _377
REMARK  162  A    between atoms: _382  and  _383
REMARK  163  A    between atoms: _388  and  _390
REMARK  164  A    between atoms: _390  and  _391
REMARK  165  A    between atoms: _390  and  _393
REMARK  166  A    between atoms: _393  and  _394
REMARK  167  A    between atoms: _394  and  _395
REMARK  168  A    between atoms: _398  and  _400
REMARK  169  A    between atoms: _400  and  _401
REMARK  170  A    between atoms: _400  and  _403
REMARK  171  A    between atoms: _403  and  _404
REMARK  172  A    between atoms: _409  and  _411
REMARK  173  A    between atoms: _411  and  _412
REMARK  174  A    between atoms: _411  and  _414
REMARK  175  A    between atoms: _414  and  _415
REMARK  176  A    between atoms: _418  and  _420
REMARK  177  A    between atoms: _420  and  _421
REMARK  178  A    between atoms: _420  and  _423
REMARK  179  A    between atoms: _423  and  _424
REMARK  180  A    between atoms: _427  and  _429
REMARK  181  A    between atoms: _429  and  _430
REMARK  182  A    between atoms: _429  and  _432
REMARK  183  A    between atoms: _432  and  _433
REMARK  184  A    between atoms: _436  and  _438
REMARK  185  A    between atoms: _438  and  _439
REMARK  186  A    between atoms: _438  and  _441
REMARK  187  A    between atoms: _441  and  _442
REMARK  188  A    between atoms: _445  and  _447
REMARK  189  A    between atoms: _447  and  _448
REMARK  190  A    between atoms: _447  and  _450
REMARK  191  A    between atoms: _450  and  _451
REMARK  192  A    between atoms: _451  and  _452
REMARK  193  A    between atoms: _452  and  _453
REMARK  194  A    between atoms: _453  and  _454
REMARK  195  A    between atoms: _458  and  _460
REMARK  196  A    between atoms: _460  and  _461
REMARK  197  A    between atoms: _460  and  _463
REMARK  198  A    between atoms: _463  and  _464
REMARK  199  A    between atoms: _467  and  _469
REMARK  200  A    between atoms: _469  and  _470
REMARK  201  A    between atoms: _469  and  _472
REMARK  202  A    between atoms: _472  and  _473
REMARK  203  A    between atoms: _475  and  _477
REMARK  204  A    between atoms: _477  and  _478
REMARK  205  A    between atoms: _477  and  _480
REMARK  206  A    between atoms: _480  and  _481
REMARK  207  A    between atoms: _484  and  _486
REMARK  208  A    between atoms: _486  and  _487
REMARK  209  A    between atoms: _486  and  _489
REMARK  210  A    between atoms: _489  and  _490
REMARK  211  A    between atoms: _496  and  _498
REMARK  212  A    between atoms: _498  and  _499
REMARK  213  A    between atoms: _501  and  _503
REMARK  214  A    between atoms: _503  and  _504
REMARK  215  A    between atoms: _503  and  _506
REMARK  216  A    between atoms: _506  and  _507
REMARK                            x       y       z     vdW  Elec       q    Type
REMARK                         _______ _______ _______ _____ _____    ______ ____
ROOT
ATOM      1  O   HOH     1      -4.240   7.611  19.292  0.00  0.00    +0.000 OA
ENDROOT
TORSDOF 0
REMARK  Name = ../refined-set-2016/1nvr/1nvr_pocket.pdb
REMARK  216 active torsions:
REMARK  status: ('A' for Active; 'I' for Inactive)
REMARK    1  A    between atoms: _1  and  _3
REMARK    2  A    between atoms: _3  and  _4
REMARK    3  A    between atoms: _3  and  _6
REMARK    4  A    between atoms: _6  and  _7
REMARK    5  A    between atoms: _7  and  _8
REMARK    6  A    between atoms: _13  and  _15
REMARK    7  A    between atoms: _15  and  _16
REMARK    8  A    between atoms: _15  and  _18
REMARK    9  A    between atoms: _18  and  _19
REMARK   10  A    between atoms: _22  and  _24
REMARK   11  A    between atoms: _24  and  _25
REMARK   12  A    between atoms: _24  and  _27
REMARK   13  A    between atoms: _27  and  _28
REMARK   14  A    between atoms: _31  and  _33
REMARK   15  A    between atoms: _33  and  _34
REMARK   16  A    between atoms: _36  and  _38
REMARK   17  A    between atoms: _38  and  _39
REMARK   18  A    between atoms: _38  and  _41
REMARK   19  A    between atoms: _41  and  _42
REMARK   20  A    between atoms: _42  and  _43
REMARK   21  A    between atoms: _46  and  _48
REMARK   22  A    between atoms: _48  and  _49
REMARK   23  A    between atoms: _51  and  _53
REMARK   24  A    between atoms: _53  and  _54
REMARK   25  A    between atoms: _53  and  _56
REMARK   26  A    between atoms: _56  and  _57
REMARK   27  A    between atoms: _62  and  _63
REMARK   28  A    between atoms: _65  and  _67
REMARK   29  A    between atoms: _67  and  _68
REMARK   30  A    between atoms: _70  and  _72
REMARK   31  A    between atoms: _72  and  _73
REMARK   32  A    between atoms: _72  and  _75
REMARK   33  A    between atoms: _75  and  _76
REMARK   34  A    between atoms: _76  and  _77
REMARK   35  A    between atoms: _80  and  _82
REMARK   36  A    between atoms: _82  and  _83
REMARK   37  A    between atoms: _82  and  _85
REMARK   38  A    between atoms: _88  and  _90
REMARK   39  A    between atoms: _90  and  _91
REMARK   40  A    between atoms: _90  and  _93
REMARK   41  A    between atoms: _93  and  _94
REMARK   42  A    between atoms: _94  and  _95
REMARK   43  A    between atoms: _100  and  _102
REMARK   44  A    between atoms: _102  and  _103
REMARK   45  A    between atoms: _102  and  _105
REMARK   46  A    between atoms: _105  and  _106
REMARK   47  A    between atoms: _109  and  _111
REMARK   48  A    between atoms: _111  and  _112
REMARK   49  A    between atoms: _115  and  _117
REMARK   50  A    between atoms: _117  and  _118
REMARK   51  A    between atoms: _121  and  _123
REMARK   52  A    between atoms: _123  and  _124
REMARK   53  A    between atoms: _123  and  _126
REMARK   54  A    between atoms: _129  and  _131
REMARK   55  A    between atoms: _131  and  _132
REMARK   56  A    between atoms: _135  and  _137
REMARK   57  A    between atoms: _137  and  _138
REMARK   58  A    between atoms: _137  and  _140
REMARK   59  A    between atoms: _143  and  _145
REMARK   60  A    between atoms: _145  and  _146
REMARK   61  A    between atoms: _145  and  _148
REMARK   62  A    between atoms: _148  and  _149
REMARK   63  A    between atoms: _149  and  _150
REMARK   64  A    between atoms: _150  and  _151
REMARK   65  A    between atoms: _151  and  _152
REMARK   66  A    between atoms: _156  and  _158
REMARK   67  A    between atoms: _158  and  _159
REMARK   68  A    between atoms: _158  and  _161
REMARK   69  A    between atoms: _161  and  _162
REMARK   70  A    between atoms: _165  and  _167
REMARK   71  A    between atoms: _167  and  _168
REMARK   72  A    between atoms: _167  and  _170
REMARK   73  A    between atoms: _173  and  _175
REMARK   74  A    between atoms: _175  and  _176
REMARK   75  A    between atoms: _175  and  _178
REMARK   76  A    between atoms: _178  and  _179
REMARK   77  A    between atoms: _179  and  _180
REMARK   78  A    between atoms: _183  and  _185
REMARK   79  A    between atoms: _185  and  _186
REMARK   80  A    between atoms: _185  and  _188
REMARK   81  A    between atoms: _188  and  _189
REMARK   82  A    between atoms: _194  and  _196
REMARK   83  A    between atoms: _196  and  _197
REMARK   84  A    between atoms: _196  and  _199
REMARK   85  A    between atoms: _202  and  _204
REMARK   86  A    between atoms: _204  and  _205
REMARK   87  A    between atoms: _204  and  _207
REMARK   88  A    between atoms: _207  and  _208
REMARK   89  A    between atoms: _208  and  _209
REMARK   90  A    between atoms: _209  and  _210
REMARK   91  A    between atoms: _210  and  _211
REMARK   92  A    between atoms: _215  and  _217
REMARK   93  A    between atoms: _217  and  _218
REMARK   94  A    between atoms: _217  and  _220
REMARK   95  A    between atoms: _220  and  _221
REMARK   96  A    between atoms: _226  and  _227
REMARK   97  A    between atoms: _229  and  _231
REMARK   98  A    between atoms: _231  and  _232
REMARK   99  A    between atoms: _231  and  _234
REMARK  100  A    between atoms: _234  and  _235
REMARK  101  A    between atoms: _238  and  _240
REMARK  102  A    between atoms: _240  and  _241
REMARK  103  A    between atoms: _240  and  _243
REMARK  104  A    between atoms: _243  and  _244
REMARK  105  A    between atoms: _250  and  _252
REMARK  106  A    between atoms: _252  and  _253
REMARK  107  A    between atoms: _252  and  _255
REMARK  108  A    between atoms: _255  and  _256
REMARK  109  A    between atoms: _259  and  _261
REMARK  110  A    between atoms: _261  and  _262
REMARK  111  A    between atoms: _261  and  _264
REMARK  112  A    between atoms: _264  and  _265
REMARK  113  A    between atoms: _265  and  _266
REMARK  114  A    between atoms: _269  and  _271
REMARK  115  A    between atoms: _271  and  _272
REMARK  116  A    between atoms: _271  and  _274
REMARK  117  A    between atoms: _274  and  _275
REMARK  118  A    between atoms: _280  and  _281
REMARK  119  A    between atoms: _283  and  _285
REMARK  120  A    between atoms: _285  and  _286
REMARK  121  A    between atoms: _285  and  _288
REMARK  122  A    between atoms: _290  and  _292
REMARK  123  A    between atoms: _292  and  _293
REMARK  124  A    between atoms: _292  and  _295
REMARK  125  A    between atoms: _295  and  _296
REMARK  126  A    between atoms: _298  and  _300
REMARK  127  A    between atoms: _300  and  _301
REMARK  128  A    between atoms: _303  and  _305
REMARK  129  A    between atoms: _305  and  _306
REMARK  130  A    between atoms: _308  and  _310
REMARK  131  A    between atoms: _310  and  _311
REMARK  132  A    between atoms: _310  and  _313
REMARK  133  A    between atoms: _313  and  _314
REMARK  134  A    between atoms: _314  and  _315
REMARK  135  A    between atoms: _318  and  _320
REMARK  136  A    between atoms: _320  and  _321
REMARK  137  A    between atoms: _320  and  _323
REMARK  138  A    between atoms: _323  and  _324
REMARK  139  A    between atoms: _327  and  _329
REMARK  140  A    between atoms: _329  and  _330
REMARK  141  A    between atoms: _329  and  _332
REMARK  142  A    between atoms: _332  and  _333
REMARK  143  A    between atoms: _339  and  _341
REMARK  144  A    between atoms: _341  and  _342
REMARK  145  A    between atoms: _341  and  _344
REMARK  146  A    between atoms: _344  and  _345
REMARK  147  A    between atoms: _348  and  _350
REMARK  148  A    between atoms: _350  and  _351
REMARK  149  A    between atoms: _350  and  _353
REMARK  150  A    between atoms: _353  and  _354
REMARK  151  A    between atoms: _359  and  _361
REMARK  152  A    between atoms: _361  and  _362
REMARK  153  A    between atoms: _361  and  _364
REMARK  154  A    between atoms: _364  and  _365
REMARK  155  A    between atoms: _368  and  _370
REMARK  156  A    between atoms: _370  and  _371
REMARK  157  A    between atoms: _370  and  _373
REMARK  158  A    between atoms: _373  and  _374
REMARK  159  A    between atoms: _374  and  _375
REMARK  160  A    between atoms: _375  and  _376
REMARK  161  A    between atoms: _376  and  _377
REMARK  162  A    between atoms: _382  and  _383
REMARK  163  A    between atoms: _388  and  _390
REMARK  164  A    between atoms: _390  and  _391
REMARK  165  A    between atoms: _390  and  _393
REMARK  166  A    between atoms: _393  and  _394
REMARK  167  A    between atoms: _394  and  _395
REMARK  168  A    between atoms: _398  and  _400
REMARK  169  A    between atoms: _400  and  _401
REMARK  170  A    between atoms: _400  and  _403
REMARK  171  A    between atoms: _403  and  _404
REMARK  172  A    between atoms: _409  and  _411
REMARK  173  A    between atoms: _411  and  _412
REMARK  174  A    between atoms: _411  and  _414
REMARK  175  A    between atoms: _414  and  _415
REMARK  176  A    between atoms: _418  and  _420
REMARK  177  A    between atoms: _420  and  _421
REMARK  178  A    between atoms: _420  and  _423
REMARK  179  A    between atoms: _423  and  _424
REMARK  180  A    between atoms: _427  and  _429
REMARK  181  A    between atoms: _429  and  _430
REMARK  182  A    between atoms: _429  and  _432
REMARK  183  A    between atoms: _432  and  _433
REMARK  184  A    between atoms: _436  and  _438
REMARK  185  A    between atoms: _438  and  _439
REMARK  186  A    between atoms: _438  and  _441
REMARK  187  A    between atoms: _441  and  _442
REMARK  188  A    between atoms: _445  and  _447
REMARK  189  A    between atoms: _447  and  _448
REMARK  190  A    between atoms: _447  and  _450
REMARK  191  A    between atoms: _450  and  _451
REMARK  192  A    between atoms: _451  and  _452
REMARK  193  A    between atoms: _452  and  _453
REMARK  194  A    between atoms: _453  and  _454
REMARK  195  A    between atoms: _458  and  _460
REMARK  196  A    between atoms: _460  and  _461
REMARK  197  A    between atoms: _460  and  _463
REMARK  198  A    between atoms: _463  and  _464
REMARK  199  A    between atoms: _467  and  _469
REMARK  200  A    between atoms: _469  and  _470
REMARK  201  A    between atoms: _469  and  _472
REMARK  202  A    between atoms: _472  and  _473
REMARK  203  A    between atoms: _475  and  _477
REMARK  204  A    between atoms: _477  and  _478
REMARK  205  A    between atoms: _477  and  _480
REMARK  206  A    between atoms: _480  and  _481
REMARK  207  A    between atoms: _484  and  _486
REMARK  208  A    between atoms: _486  and  _487
REMARK  209  A    between atoms: _486  and  _489
REMARK  210  A    between atoms: _489  and  _490
REMARK  211  A    between atoms: _496  and  _498
REMARK  212  A    between atoms: _498  and  _499
REMARK  213  A    between atoms: _501  and  _503
REMARK  214  A    between atoms: _503  and  _504
REMARK  215  A    between atoms: _503  and  _506
REMARK  216  A    between atoms: _506  and  _507
REMARK                            x       y       z     vdW  Elec       q    Type
REMARK                         _______ _______ _______ _____ _____    ______ ____
ROOT
ATOM      1  O   HOH     1       4.423  17.277  20.361  0.00  0.00    +0.000 OA
ENDROOT
TORSDOF 0
REMARK  Name = ../refined-set-2016/1nvr/1nvr_pocket.pdb
REMARK  216 active torsions:
REMARK  status: ('A' for Active; 'I' for Inactive)
REMARK    1  A    between atoms: _1  and  _3
REMARK    2  A    between atoms: _3  and  _4
REMARK    3  A    between atoms: _3  and  _6
REMARK    4  A    between atoms: _6  and  _7
REMARK    5  A    between atoms: _7  and  _8
REMARK    6  A    between atoms: _13  and  _15
REMARK    7  A    between atoms: _15  and  _16
REMARK    8  A    between atoms: _15  and  _18
REMARK    9  A    between atoms: _18  and  _19
REMARK   10  A    between atoms: _22  and  _24
REMARK   11  A    between atoms: _24  and  _25
REMARK   12  A    between atoms: _24  and  _27
REMARK   13  A    between atoms: _27  and  _28
REMARK   14  A    between atoms: _31  and  _33
REMARK   15  A    between atoms: _33  and  _34
REMARK   16  A    between atoms: _36  and  _38
REMARK   17  A    between atoms: _38  and  _39
REMARK   18  A    between atoms: _38  and  _41
REMARK   19  A    between atoms: _41  and  _42
REMARK   20  A    between atoms: _42  and  _43
REMARK   21  A    between atoms: _46  and  _48
REMARK   22  A    between atoms: _48  and  _49
REMARK   23  A    between atoms: _51  and  _53
REMARK   24  A    between atoms: _53  and  _54
REMARK   25  A    between atoms: _53  and  _56
REMARK   26  A    between atoms: _56  and  _57
REMARK   27  A    between atoms: _62  and  _63
REMARK   28  A    between atoms: _65  and  _67
REMARK   29  A    between atoms: _67  and  _68
REMARK   30  A    between atoms: _70  and  _72
REMARK   31  A    between atoms: _72  and  _73
REMARK   32  A    between atoms: _72  and  _75
REMARK   33  A    between atoms: _75  and  _76
REMARK   34  A    between atoms: _76  and  _77
REMARK   35  A    between atoms: _80  and  _82
REMARK   36  A    between atoms: _82  and  _83
REMARK   37  A    between atoms: _82  and  _85
REMARK   38  A    between atoms: _88  and  _90
REMARK   39  A    between atoms: _90  and  _91
REMARK   40  A    between atoms: _90  and  _93
REMARK   41  A    between atoms: _93  and  _94
REMARK   42  A    between atoms: _94  and  _95
REMARK   43  A    between atoms: _100  and  _102
REMARK   44  A    between atoms: _102  and  _103
REMARK   45  A    between atoms: _102  and  _105
REMARK   46  A    between atoms: _105  and  _106
REMARK   47  A    between atoms: _109  and  _111
REMARK   48  A    between atoms: _111  and  _112
REMARK   49  A    between atoms: _115  and  _117
REMARK   50  A    between atoms: _117  and  _118
REMARK   51  A    between atoms: _121  and  _123
REMARK   52  A    between atoms: _123  and  _124
REMARK   53  A    between atoms: _123  and  _126
REMARK   54  A    between atoms: _129  and  _131
REMARK   55  A    between atoms: _131  and  _132
REMARK   56  A    between atoms: _135  and  _137
REMARK   57  A    between atoms: _137  and  _138
REMARK   58  A    between atoms: _137  and  _140
REMARK   59  A    between atoms: _143  and  _145
REMARK   60  A    between atoms: _145  and  _146
REMARK   61  A    between atoms: _145  and  _148
REMARK   62  A    between atoms: _148  and  _149
REMARK   63  A    between atoms: _149  and  _150
REMARK   64  A    between atoms: _150  and  _151
REMARK   65  A    between atoms: _151  and  _152
REMARK   66  A    between atoms: _156  and  _158
REMARK   67  A    between atoms: _158  and  _159
REMARK   68  A    between atoms: _158  and  _161
REMARK   69  A    between atoms: _161  and  _162
REMARK   70  A    between atoms: _165  and  _167
REMARK   71  A    between atoms: _167  and  _168
REMARK   72  A    between atoms: _167  and  _170
REMARK   73  A    between atoms: _173  and  _175
REMARK   74  A    between atoms: _175  and  _176
REMARK   75  A    between atoms: _175  and  _178
REMARK   76  A    between atoms: _178  and  _179
REMARK   77  A    between atoms: _179  and  _180
REMARK   78  A    between atoms: _183  and  _185
REMARK   79  A    between atoms: _185  and  _186
REMARK   80  A    between atoms: _185  and  _188
REMARK   81  A    between atoms: _188  and  _189
REMARK   82  A    between atoms: _194  and  _196
REMARK   83  A    between atoms: _196  and  _197
REMARK   84  A    between atoms: _196  and  _199
REMARK   85  A    between atoms: _202  and  _204
REMARK   86  A    between atoms: _204  and  _205
REMARK   87  A    between atoms: _204  and  _207
REMARK   88  A    between atoms: _207  and  _208
REMARK   89  A    between atoms: _208  and  _209
REMARK   90  A    between atoms: _209  and  _210
REMARK   91  A    between atoms: _210  and  _211
REMARK   92  A    between atoms: _215  and  _217
REMARK   93  A    between atoms: _217  and  _218
REMARK   94  A    between atoms: _217  and  _220
REMARK   95  A    between atoms: _220  and  _221
REMARK   96  A    between atoms: _226  and  _227
REMARK   97  A    between atoms: _229  and  _231
REMARK   98  A    between atoms: _231  and  _232
REMARK   99  A    between atoms: _231  and  _234
REMARK  100  A    between atoms: _234  and  _235
REMARK  101  A    between atoms: _238  and  _240
REMARK  102  A    between atoms: _240  and  _241
REMARK  103  A    between atoms: _240  and  _243
REMARK  104  A    between atoms: _243  and  _244
REMARK  105  A    between atoms: _250  and  _252
REMARK  106  A    between atoms: _252  and  _253
REMARK  107  A    between atoms: _252  and  _255
REMARK  108  A    between atoms: _255  and  _256
REMARK  109  A    between atoms: _259  and  _261
REMARK  110  A    between atoms: _261  and  _262
REMARK  111  A    between atoms: _261  and  _264
REMARK  112  A    between atoms: _264  and  _265
REMARK  113  A    between atoms: _265  and  _266
REMARK  114  A    between atoms: _269  and  _271
REMARK  115  A    between atoms: _271  and  _272
REMARK  116  A    between atoms: _271  and  _274
REMARK  117  A    between atoms: _274  and  _275
REMARK  118  A    between atoms: _280  and  _281
REMARK  119  A    between atoms: _283  and  _285
REMARK  120  A    between atoms: _285  and  _286
REMARK  121  A    between atoms: _285  and  _288
REMARK  122  A    between atoms: _290  and  _292
REMARK  123  A    between atoms: _292  and  _293
REMARK  124  A    between atoms: _292  and  _295
REMARK  125  A    between atoms: _295  and  _296
REMARK  126  A    between atoms: _298  and  _300
REMARK  127  A    between atoms: _300  and  _301
REMARK  128  A    between atoms: _303  and  _305
REMARK  129  A    between atoms: _305  and  _306
REMARK  130  A    between atoms: _308  and  _310
REMARK  131  A    between atoms: _310  and  _311
REMARK  132  A    between atoms: _310  and  _313
REMARK  133  A    between atoms: _313  and  _314
REMARK  134  A    between atoms: _314  and  _315
REMARK  135  A    between atoms: _318  and  _320
REMARK  136  A    between atoms: _320  and  _321
REMARK  137  A    between atoms: _320  and  _323
REMARK  138  A    between atoms: _323  and  _324
REMARK  139  A    between atoms: _327  and  _329
REMARK  140  A    between atoms: _329  and  _330
REMARK  141  A    between atoms: _329  and  _332
REMARK  142  A    between atoms: _332  and  _333
REMARK  143  A    between atoms: _339  and  _341
REMARK  144  A    between atoms: _341  and  _342
REMARK  145  A    between atoms: _341  and  _344
REMARK  146  A    between atoms: _344  and  _345
REMARK  147  A    between atoms: _348  and  _350
REMARK  148  A    between atoms: _350  and  _351
REMARK  149  A    between atoms: _350  and  _353
REMARK  150  A    between atoms: _353  and  _354
REMARK  151  A    between atoms: _359  and  _361
REMARK  152  A    between atoms: _361  and  _362
REMARK  153  A    between atoms: _361  and  _364
REMARK  154  A    between atoms: _364  and  _365
REMARK  155  A    between atoms: _368  and  _370
REMARK  156  A    between atoms: _370  and  _371
REMARK  157  A    between atoms: _370  and  _373
REMARK  158  A    between atoms: _373  and  _374
REMARK  159  A    between atoms: _374  and  _375
REMARK  160  A    between atoms: _375  and  _376
REMARK  161  A    between atoms: _376  and  _377
REMARK  162  A    between atoms: _382  and  _383
REMARK  163  A    between atoms: _388  and  _390
REMARK  164  A    between atoms: _390  and  _391
REMARK  165  A    between atoms: _390  and  _393
REMARK  166  A    between atoms: _393  and  _394
REMARK  167  A    between atoms: _394  and  _395
REMARK  168  A    between atoms: _398  and  _400
REMARK  169  A    between atoms: _400  and  _401
REMARK  170  A    between atoms: _400  and  _403
REMARK  171  A    between atoms: _403  and  _404
REMARK  172  A    between atoms: _409  and  _411
REMARK  173  A    between atoms: _411  and  _412
REMARK  174  A    between atoms: _411  and  _414
REMARK  175  A    between atoms: _414  and  _415
REMARK  176  A    between atoms: _418  and  _420
REMARK  177  A    between atoms: _420  and  _421
REMARK  178  A    between atoms: _420  and  _423
REMARK  179  A    between atoms: _423  and  _424
REMARK  180  A    between atoms: _427  and  _429
REMARK  181  A    between atoms: _429  and  _430
REMARK  182  A    between atoms: _429  and  _432
REMARK  183  A    between atoms: _432  and  _433
REMARK  184  A    between atoms: _436  and  _438
REMARK  185  A    between atoms: _438  and  _439
REMARK  186  A    between atoms: _438  and  _441
REMARK  187  A    between atoms: _441  and  _442
REMARK  188  A    between atoms: _445  and  _447
REMARK  189  A    between atoms: _447  and  _448
REMARK  190  A    between atoms: _447  and  _450
REMARK  191  A    between atoms: _450  and  _451
REMARK  192  A    between atoms: _451  and  _452
REMARK  193  A    between atoms: _452  and  _453
REMARK  194  A    between atoms: _453  and  _454
REMARK  195  A    between atoms: _458  and  _460
REMARK  196  A    between atoms: _460  and  _461
REMARK  197  A    between atoms: _460  and  _463
REMARK  198  A    between atoms: _463  and  _464
REMARK  199  A    between atoms: _467  and  _469
REMARK  200  A    between atoms: _469  and  _470
REMARK  201  A    between atoms: _469  and  _472
REMARK  202  A    between atoms: _472  and  _473
REMARK  203  A    between atoms: _475  and  _477
REMARK  204  A    between atoms: _477  and  _478
REMARK  205  A    between atoms: _477  and  _480
REMARK  206  A    between atoms: _480  and  _481
REMARK  207  A    between atoms: _484  and  _486
REMARK  208  A    between atoms: _486  and  _487
REMARK  209  A    between atoms: _486  and  _489
REMARK  210  A    between atoms: _489  and  _490
REMARK  211  A    between atoms: _496  and  _498
REMARK  212  A    between atoms: _498  and  _499
REMARK  213  A    between atoms: _501  and  _503
REMARK  214  A    between atoms: _503  and  _504
REMARK  215  A    between atoms: _503  and  _506
REMARK  216  A    between atoms: _506  and  _507
REMARK                            x       y       z     vdW  Elec       q    Type
REMARK                         _______ _______ _______ _____ _____    ______ ____
ROOT
ATOM      1  O   HOH     1      10.346   2.336   9.605  0.00  0.00    +0.000 OA
ENDROOT
TORSDOF 0
REMARK  Name = ../refined-set-2016/1nvr/1nvr_pocket.pdb
REMARK  216 active torsions:
REMARK  status: ('A' for Active; 'I' for Inactive)
REMARK    1  A    between atoms: _1  and  _3
REMARK    2  A    between atoms: _3  and  _4
REMARK    3  A    between atoms: _3  and  _6
REMARK    4  A    between atoms: _6  and  _7
REMARK    5  A    between atoms: _7  and  _8
REMARK    6  A    between atoms: _13  and  _15
REMARK    7  A    between atoms: _15  and  _16
REMARK    8  A    between atoms: _15  and  _18
REMARK    9  A    between atoms: _18  and  _19
REMARK   10  A    between atoms: _22  and  _24
REMARK   11  A    between atoms: _24  and  _25
REMARK   12  A    between atoms: _24  and  _27
REMARK   13  A    between atoms: _27  and  _28
REMARK   14  A    between atoms: _31  and  _33
REMARK   15  A    between atoms: _33  and  _34
REMARK   16  A    between atoms: _36  and  _38
REMARK   17  A    between atoms: _38  and  _39
REMARK   18  A    between atoms: _38  and  _41
REMARK   19  A    between atoms: _41  and  _42
REMARK   20  A    between atoms: _42  and  _43
REMARK   21  A    between atoms: _46  and  _48
REMARK   22  A    between atoms: _48  and  _49
REMARK   23  A    between atoms: _51  and  _53
REMARK   24  A    between atoms: _53  and  _54
REMARK   25  A    between atoms: _53  and  _56
REMARK   26  A    between atoms: _56  and  _57
REMARK   27  A    between atoms: _62  and  _63
REMARK   28  A    between atoms: _65  and  _67
REMARK   29  A    between atoms: _67  and  _68
REMARK   30  A    between atoms: _70  and  _72
REMARK   31  A    between atoms: _72  and  _73
REMARK   32  A    between atoms: _72  and  _75
REMARK   33  A    between atoms: _75  and  _76
REMARK   34  A    between atoms: _76  and  _77
REMARK   35  A    between atoms: _80  and  _82
REMARK   36  A    between atoms: _82  and  _83
REMARK   37  A    between atoms: _82  and  _85
REMARK   38  A    between atoms: _88  and  _90
REMARK   39  A    between atoms: _90  and  _91
REMARK   40  A    between atoms: _90  and  _93
REMARK   41  A    between atoms: _93  and  _94
REMARK   42  A    between atoms: _94  and  _95
REMARK   43  A    between atoms: _100  and  _102
REMARK   44  A    between atoms: _102  and  _103
REMARK   45  A    between atoms: _102  and  _105
REMARK   46  A    between atoms: _105  and  _106
REMARK   47  A    between atoms: _109  and  _111
REMARK   48  A    between atoms: _111  and  _112
REMARK   49  A    between atoms: _115  and  _117
REMARK   50  A    between atoms: _117  and  _118
REMARK   51  A    between atoms: _121  and  _123
REMARK   52  A    between atoms: _123  and  _124
REMARK   53  A    between atoms: _123  and  _126
REMARK   54  A    between atoms: _129  and  _131
REMARK   55  A    between atoms: _131  and  _132
REMARK   56  A    between atoms: _135  and  _137
REMARK   57  A    between atoms: _137  and  _138
REMARK   58  A    between atoms: _137  and  _140
REMARK   59  A    between atoms: _143  and  _145
REMARK   60  A    between atoms: _145  and  _146
REMARK   61  A    between atoms: _145  and  _148
REMARK   62  A    between atoms: _148  and  _149
REMARK   63  A    between atoms: _149  and  _150
REMARK   64  A    between atoms: _150  and  _151
REMARK   65  A    between atoms: _151  and  _152
REMARK   66  A    between atoms: _156  and  _158
REMARK   67  A    between atoms: _158  and  _159
REMARK   68  A    between atoms: _158  and  _161
REMARK   69  A    between atoms: _161  and  _162
REMARK   70  A    between atoms: _165  and  _167
REMARK   71  A    between atoms: _167  and  _168
REMARK   72  A    between atoms: _167  and  _170
REMARK   73  A    between atoms: _173  and  _175
REMARK   74  A    between atoms: _175  and  _176
REMARK   75  A    between atoms: _175  and  _178
REMARK   76  A    between atoms: _178  and  _179
REMARK   77  A    between atoms: _179  and  _180
REMARK   78  A    between atoms: _183  and  _185
REMARK   79  A    between atoms: _185  and  _186
REMARK   80  A    between atoms: _185  and  _188
REMARK   81  A    between atoms: _188  and  _189
REMARK   82  A    between atoms: _194  and  _196
REMARK   83  A    between atoms: _196  and  _197
REMARK   84  A    between atoms: _196  and  _199
REMARK   85  A    between atoms: _202  and  _204
REMARK   86  A    between atoms: _204  and  _205
REMARK   87  A    between atoms: _204  and  _207
REMARK   88  A    between atoms: _207  and  _208
REMARK   89  A    between atoms: _208  and  _209
REMARK   90  A    between atoms: _209  and  _210
REMARK   91  A    between atoms: _210  and  _211
REMARK   92  A    between atoms: _215  and  _217
REMARK   93  A    between atoms: _217  and  _218
REMARK   94  A    between atoms: _217  and  _220
REMARK   95  A    between atoms: _220  and  _221
REMARK   96  A    between atoms: _226  and  _227
REMARK   97  A    between atoms: _229  and  _231
REMARK   98  A    between atoms: _231  and  _232
REMARK   99  A    between atoms: _231  and  _234
REMARK  100  A    between atoms: _234  and  _235
REMARK  101  A    between atoms: _238  and  _240
REMARK  102  A    between atoms: _240  and  _241
REMARK  103  A    between atoms: _240  and  _243
REMARK  104  A    between atoms: _243  and  _244
REMARK  105  A    between atoms: _250  and  _252
REMARK  106  A    between atoms: _252  and  _253
REMARK  107  A    between atoms: _252  and  _255
REMARK  108  A    between atoms: _255  and  _256
REMARK  109  A    between atoms: _259  and  _261
REMARK  110  A    between atoms: _261  and  _262
REMARK  111  A    between atoms: _261  and  _264
REMARK  112  A    between atoms: _264  and  _265
REMARK  113  A    between atoms: _265  and  _266
REMARK  114  A    between atoms: _269  and  _271
REMARK  115  A    between atoms: _271  and  _272
REMARK  116  A    between atoms: _271  and  _274
REMARK  117  A    between atoms: _274  and  _275
REMARK  118  A    between atoms: _280  and  _281
REMARK  119  A    between atoms: _283  and  _285
REMARK  120  A    between atoms: _285  and  _286
REMARK  121  A    between atoms: _285  and  _288
REMARK  122  A    between atoms: _290  and  _292
REMARK  123  A    between atoms: _292  and  _293
REMARK  124  A    between atoms: _292  and  _295
REMARK  125  A    between atoms: _295  and  _296
REMARK  126  A    between atoms: _298  and  _300
REMARK  127  A    between atoms: _300  and  _301
REMARK  128  A    between atoms: _303  and  _305
REMARK  129  A    between atoms: _305  and  _306
REMARK  130  A    between atoms: _308  and  _310
REMARK  131  A    between atoms: _310  and  _311
REMARK  132  A    between atoms: _310  and  _313
REMARK  133  A    between atoms: _313  and  _314
REMARK  134  A    between atoms: _314  and  _315
REMARK  135  A    between atoms: _318  and  _320
REMARK  136  A    between atoms: _320  and  _321
REMARK  137  A    between atoms: _320  and  _323
REMARK  138  A    between atoms: _323  and  _324
REMARK  139  A    between atoms: _327  and  _329
REMARK  140  A    between atoms: _329  and  _330
REMARK  141  A    between atoms: _329  and  _332
REMARK  142  A    between atoms: _332  and  _333
REMARK  143  A    between atoms: _339  and  _341
REMARK  144  A    between atoms: _341  and  _342
REMARK  145  A    between atoms: _341  and  _344
REMARK  146  A    between atoms: _344  and  _345
REMARK  147  A    between atoms: _348  and  _350
REMARK  148  A    between atoms: _350  and  _351
REMARK  149  A    between atoms: _350  and  _353
REMARK  150  A    between atoms: _353  and  _354
REMARK  151  A    between atoms: _359  and  _361
REMARK  152  A    between atoms: _361  and  _362
REMARK  153  A    between atoms: _361  and  _364
REMARK  154  A    between atoms: _364  and  _365
REMARK  155  A    between atoms: _368  and  _370
REMARK  156  A    between atoms: _370  and  _371
REMARK  157  A    between atoms: _370  and  _373
REMARK  158  A    between atoms: _373  and  _374
REMARK  159  A    between atoms: _374  and  _375
REMARK  160  A    between atoms: _375  and  _376
REMARK  161  A    between atoms: _376  and  _377
REMARK  162  A    between atoms: _382  and  _383
REMARK  163  A    between atoms: _388  and  _390
REMARK  164  A    between atoms: _390  and  _391
REMARK  165  A    between atoms: _390  and  _393
REMARK  166  A    between atoms: _393  and  _394
REMARK  167  A    between atoms: _394  and  _395
REMARK  168  A    between atoms: _398  and  _400
REMARK  169  A    between atoms: _400  and  _401
REMARK  170  A    between atoms: _400  and  _403
REMARK  171  A    between atoms: _403  and  _404
REMARK  172  A    between atoms: _409  and  _411
REMARK  173  A    between atoms: _411  and  _412
REMARK  174  A    between atoms: _411  and  _414
REMARK  175  A    between atoms: _414  and  _415
REMARK  176  A    between atoms: _418  and  _420
REMARK  177  A    between atoms: _420  and  _421
REMARK  178  A    between atoms: _420  and  _423
REMARK  179  A    between atoms: _423  and  _424
REMARK  180  A    between atoms: _427  and  _429
REMARK  181  A    between atoms: _429  and  _430
REMARK  182  A    between atoms: _429  and  _432
REMARK  183  A    between atoms: _432  and  _433
REMARK  184  A    between atoms: _436  and  _438
REMARK  185  A    between atoms: _438  and  _439
REMARK  186  A    between atoms: _438  and  _441
REMARK  187  A    between atoms: _441  and  _442
REMARK  188  A    between atoms: _445  and  _447
REMARK  189  A    between atoms: _447  and  _448
REMARK  190  A    between atoms: _447  and  _450
REMARK  191  A    between atoms: _450  and  _451
REMARK  192  A    between atoms: _451  and  _452
REMARK  193  A    between atoms: _452  and  _453
REMARK  194  A    between atoms: _453  and  _454
REMARK  195  A    between atoms: _458  and  _460
REMARK  196  A    between atoms: _460  and  _461
REMARK  197  A    between atoms: _460  and  _463
REMARK  198  A    between atoms: _463  and  _464
REMARK  199  A    between atoms: _467  and  _469
REMARK  200  A    between atoms: _469  and  _470
REMARK  201  A    between atoms: _469  and  _472
REMARK  202  A    between atoms: _472  and  _473
REMARK  203  A    between atoms: _475  and  _477
REMARK  204  A    between atoms: _477  and  _478
REMARK  205  A    between atoms: _477  and  _480
REMARK  206  A    between atoms: _480  and  _481
REMARK  207  A    between atoms: _484  and  _486
REMARK  208  A    between atoms: _486  and  _487
REMARK  209  A    between atoms: _486  and  _489
REMARK  210  A    between atoms: _489  and  _490
REMARK  211  A    between atoms: _496  and  _498
REMARK  212  A    between atoms: _498  and  _499
REMARK  213  A    between atoms: _501  and  _503
REMARK  214  A    between atoms: _503  and  _504
REMARK  215  A    between atoms: _503  and  _506
REMARK  216  A    between atoms: _506  and  _507
REMARK                            x       y       z     vdW  Elec       q    Type
REMARK                         _______ _______ _______ _____ _____    ______ ____
ROOT
ATOM      1  O   HOH     1      -1.771   8.278  23.320  0.00  0.00    +0.000 OA
ENDROOT
TORSDOF 0
REMARK  Name = ../refined-set-2016/1nvr/1nvr_pocket.pdb
REMARK  216 active torsions:
REMARK  status: ('A' for Active; 'I' for Inactive)
REMARK    1  A    between atoms: _1  and  _3
REMARK    2  A    between atoms: _3  and  _4
REMARK    3  A    between atoms: _3  and  _6
REMARK    4  A    between atoms: _6  and  _7
REMARK    5  A    between atoms: _7  and  _8
REMARK    6  A    between atoms: _13  and  _15
REMARK    7  A    between atoms: _15  and  _16
REMARK    8  A    between atoms: _15  and  _18
REMARK    9  A    between atoms: _18  and  _19
REMARK   10  A    between atoms: _22  and  _24
REMARK   11  A    between atoms: _24  and  _25
REMARK   12  A    between atoms: _24  and  _27
REMARK   13  A    between atoms: _27  and  _28
REMARK   14  A    between atoms: _31  and  _33
REMARK   15  A    between atoms: _33  and  _34
REMARK   16  A    between atoms: _36  and  _38
REMARK   17  A    between atoms: _38  and  _39
REMARK   18  A    between atoms: _38  and  _41
REMARK   19  A    between atoms: _41  and  _42
REMARK   20  A    between atoms: _42  and  _43
REMARK   21  A    between atoms: _46  and  _48
REMARK   22  A    between atoms: _48  and  _49
REMARK   23  A    between atoms: _51  and  _53
REMARK   24  A    between atoms: _53  and  _54
REMARK   25  A    between atoms: _53  and  _56
REMARK   26  A    between atoms: _56  and  _57
REMARK   27  A    between atoms: _62  and  _63
REMARK   28  A    between atoms: _65  and  _67
REMARK   29  A    between atoms: _67  and  _68
REMARK   30  A    between atoms: _70  and  _72
REMARK   31  A    between atoms: _72  and  _73
REMARK   32  A    between atoms: _72  and  _75
REMARK   33  A    between atoms: _75  and  _76
REMARK   34  A    between atoms: _76  and  _77
REMARK   35  A    between atoms: _80  and  _82
REMARK   36  A    between atoms: _82  and  _83
REMARK   37  A    between atoms: _82  and  _85
REMARK   38  A    between atoms: _88  and  _90
REMARK   39  A    between atoms: _90  and  _91
REMARK   40  A    between atoms: _90  and  _93
REMARK   41  A    between atoms: _93  and  _94
REMARK   42  A    between atoms: _94  and  _95
REMARK   43  A    between atoms: _100  and  _102
REMARK   44  A    between atoms: _102  and  _103
REMARK   45  A    between atoms: _102  and  _105
REMARK   46  A    between atoms: _105  and  _106
REMARK   47  A    between atoms: _109  and  _111
REMARK   48  A    between atoms: _111  and  _112
REMARK   49  A    between atoms: _115  and  _117
REMARK   50  A    between atoms: _117  and  _118
REMARK   51  A    between atoms: _121  and  _123
REMARK   52  A    between atoms: _123  and  _124
REMARK   53  A    between atoms: _123  and  _126
REMARK   54  A    between atoms: _129  and  _131
REMARK   55  A    between atoms: _131  and  _132
REMARK   56  A    between atoms: _135  and  _137
REMARK   57  A    between atoms: _137  and  _138
REMARK   58  A    between atoms: _137  and  _140
REMARK   59  A    between atoms: _143  and  _145
REMARK   60  A    between atoms: _145  and  _146
REMARK   61  A    between atoms: _145  and  _148
REMARK   62  A    between atoms: _148  and  _149
REMARK   63  A    between atoms: _149  and  _150
REMARK   64  A    between atoms: _150  and  _151
REMARK   65  A    between atoms: _151  and  _152
REMARK   66  A    between atoms: _156  and  _158
REMARK   67  A    between atoms: _158  and  _159
REMARK   68  A    between atoms: _158  and  _161
REMARK   69  A    between atoms: _161  and  _162
REMARK   70  A    between atoms: _165  and  _167
REMARK   71  A    between atoms: _167  and  _168
REMARK   72  A    between atoms: _167  and  _170
REMARK   73  A    between atoms: _173  and  _175
REMARK   74  A    between atoms: _175  and  _176
REMARK   75  A    between atoms: _175  and  _178
REMARK   76  A    between atoms: _178  and  _179
REMARK   77  A    between atoms: _179  and  _180
REMARK   78  A    between atoms: _183  and  _185
REMARK   79  A    between atoms: _185  and  _186
REMARK   80  A    between atoms: _185  and  _188
REMARK   81  A    between atoms: _188  and  _189
REMARK   82  A    between atoms: _194  and  _196
REMARK   83  A    between atoms: _196  and  _197
REMARK   84  A    between atoms: _196  and  _199
REMARK   85  A    between atoms: _202  and  _204
REMARK   86  A    between atoms: _204  and  _205
REMARK   87  A    between atoms: _204  and  _207
REMARK   88  A    between atoms: _207  and  _208
REMARK   89  A    between atoms: _208  and  _209
REMARK   90  A    between atoms: _209  and  _210
REMARK   91  A    between atoms: _210  and  _211
REMARK   92  A    between atoms: _215  and  _217
REMARK   93  A    between atoms: _217  and  _218
REMARK   94  A    between atoms: _217  and  _220
REMARK   95  A    between atoms: _220  and  _221
REMARK   96  A    between atoms: _226  and  _227
REMARK   97  A    between atoms: _229  and  _231
REMARK   98  A    between atoms: _231  and  _232
REMARK   99  A    between atoms: _231  and  _234
REMARK  100  A    between atoms: _234  and  _235
REMARK  101  A    between atoms: _238  and  _240
REMARK  102  A    between atoms: _240  and  _241
REMARK  103  A    between atoms: _240  and  _243
REMARK  104  A    between atoms: _243  and  _244
REMARK  105  A    between atoms: _250  and  _252
REMARK  106  A    between atoms: _252  and  _253
REMARK  107  A    between atoms: _252  and  _255
REMARK  108  A    between atoms: _255  and  _256
REMARK  109  A    between atoms: _259  and  _261
REMARK  110  A    between atoms: _261  and  _262
REMARK  111  A    between atoms: _261  and  _264
REMARK  112  A    between atoms: _264  and  _265
REMARK  113  A    between atoms: _265  and  _266
REMARK  114  A    between atoms: _269  and  _271
REMARK  115  A    between atoms: _271  and  _272
REMARK  116  A    between atoms: _271  and  _274
REMARK  117  A    between atoms: _274  and  _275
REMARK  118  A    between atoms: _280  and  _281
REMARK  119  A    between atoms: _283  and  _285
REMARK  120  A    between atoms: _285  and  _286
REMARK  121  A    between atoms: _285  and  _288
REMARK  122  A    between atoms: _290  and  _292
REMARK  123  A    between atoms: _292  and  _293
REMARK  124  A    between atoms: _292  and  _295
REMARK  125  A    between atoms: _295  and  _296
REMARK  126  A    between atoms: _298  and  _300
REMARK  127  A    between atoms: _300  and  _301
REMARK  128  A    between atoms: _303  and  _305
REMARK  129  A    between atoms: _305  and  _306
REMARK  130  A    between atoms: _308  and  _310
REMARK  131  A    between atoms: _310  and  _311
REMARK  132  A    between atoms: _310  and  _313
REMARK  133  A    between atoms: _313  and  _314
REMARK  134  A    between atoms: _314  and  _315
REMARK  135  A    between atoms: _318  and  _320
REMARK  136  A    between atoms: _320  and  _321
REMARK  137  A    between atoms: _320  and  _323
REMARK  138  A    between atoms: _323  and  _324
REMARK  139  A    between atoms: _327  and  _329
REMARK  140  A    between atoms: _329  and  _330
REMARK  141  A    between atoms: _329  and  _332
REMARK  142  A    between atoms: _332  and  _333
REMARK  143  A    between atoms: _339  and  _341
REMARK  144  A    between atoms: _341  and  _342
REMARK  145  A    between atoms: _341  and  _344
REMARK  146  A    between atoms: _344  and  _345
REMARK  147  A    between atoms: _348  and  _350
REMARK  148  A    between atoms: _350  and  _351
REMARK  149  A    between atoms: _350  and  _353
REMARK  150  A    between atoms: _353  and  _354
REMARK  151  A    between atoms: _359  and  _361
REMARK  152  A    between atoms: _361  and  _362
REMARK  153  A    between atoms: _361  and  _364
REMARK  154  A    between atoms: _364  and  _365
REMARK  155  A    between atoms: _368  and  _370
REMARK  156  A    between atoms: _370  and  _371
REMARK  157  A    between atoms: _370  and  _373
REMARK  158  A    between atoms: _373  and  _374
REMARK  159  A    between atoms: _374  and  _375
REMARK  160  A    between atoms: _375  and  _376
REMARK  161  A    between atoms: _376  and  _377
REMARK  162  A    between atoms: _382  and  _383
REMARK  163  A    between atoms: _388  and  _390
REMARK  164  A    between atoms: _390  and  _391
REMARK  165  A    between atoms: _390  and  _393
REMARK  166  A    between atoms: _393  and  _394
REMARK  167  A    between atoms: _394  and  _395
REMARK  168  A    between atoms: _398  and  _400
REMARK  169  A    between atoms: _400  and  _401
REMARK  170  A    between atoms: _400  and  _403
REMARK  171  A    between atoms: _403  and  _404
REMARK  172  A    between atoms: _409  and  _411
REMARK  173  A    between atoms: _411  and  _412
REMARK  174  A    between atoms: _411  and  _414
REMARK  175  A    between atoms: _414  and  _415
REMARK  176  A    between atoms: _418  and  _420
REMARK  177  A    between atoms: _420  and  _421
REMARK  178  A    between atoms: _420  and  _423
REMARK  179  A    between atoms: _423  and  _424
REMARK  180  A    between atoms: _427  and  _429
REMARK  181  A    between atoms: _429  and  _430
REMARK  182  A    between atoms: _429  and  _432
REMARK  183  A    between atoms: _432  and  _433
REMARK  184  A    between atoms: _436  and  _438
REMARK  185  A    between atoms: _438  and  _439
REMARK  186  A    between atoms: _438  and  _441
REMARK  187  A    between atoms: _441  and  _442
REMARK  188  A    between atoms: _445  and  _447
REMARK  189  A    between atoms: _447  and  _448
REMARK  190  A    between atoms: _447  and  _450
REMARK  191  A    between atoms: _450  and  _451
REMARK  192  A    between atoms: _451  and  _452
REMARK  193  A    between atoms: _452  and  _453
REMARK  194  A    between atoms: _453  and  _454
REMARK  195  A    between atoms: _458  and  _460
REMARK  196  A    between atoms: _460  and  _461
REMARK  197  A    between atoms: _460  and  _463
REMARK  198  A    between atoms: _463  and  _464
REMARK  199  A    between atoms: _467  and  _469
REMARK  200  A    between atoms: _469  and  _470
REMARK  201  A    between atoms: _469  and  _472
REMARK  202  A    between atoms: _472  and  _473
REMARK  203  A    between atoms: _475  and  _477
REMARK  204  A    between atoms: _477  and  _478
REMARK  205  A    between atoms: _477  and  _480
REMARK  206  A    between atoms: _480  and  _481
REMARK  207  A    between atoms: _484  and  _486
REMARK  208  A    between atoms: _486  and  _487
REMARK  209  A    between atoms: _486  and  _489
REMARK  210  A    between atoms: _489  and  _490
REMARK  211  A    between atoms: _496  and  _498
REMARK  212  A    between atoms: _498  and  _499
REMARK  213  A    between atoms: _501  and  _503
REMARK  214  A    between atoms: _503  and  _504
REMARK  215  A    between atoms: _503  and  _506
REMARK  216  A    between atoms: _506  and  _507
REMARK                            x       y       z     vdW  Elec       q    Type
REMARK                         _______ _______ _______ _____ _____    ______ ____
ROOT
ATOM      1  O   HOH     1       9.595   4.494   7.992  0.00  0.00    +0.000 OA
ENDROOT
TORSDOF 0
REMARK  Name = ../refined-set-2016/1nvr/1nvr_pocket.pdb
REMARK  216 active torsions:
REMARK  status: ('A' for Active; 'I' for Inactive)
REMARK    1  A    between atoms: _1  and  _3
REMARK    2  A    between atoms: _3  and  _4
REMARK    3  A    between atoms: _3  and  _6
REMARK    4  A    between atoms: _6  and  _7
REMARK    5  A    between atoms: _7  and  _8
REMARK    6  A    between atoms: _13  and  _15
REMARK    7  A    between atoms: _15  and  _16
REMARK    8  A    between atoms: _15  and  _18
REMARK    9  A    between atoms: _18  and  _19
REMARK   10  A    between atoms: _22  and  _24
REMARK   11  A    between atoms: _24  and  _25
REMARK   12  A    between atoms: _24  and  _27
REMARK   13  A    between atoms: _27  and  _28
REMARK   14  A    between atoms: _31  and  _33
REMARK   15  A    between atoms: _33  and  _34
REMARK   16  A    between atoms: _36  and  _38
REMARK   17  A    between atoms: _38  and  _39
REMARK   18  A    between atoms: _38  and  _41
REMARK   19  A    between atoms: _41  and  _42
REMARK   20  A    between atoms: _42  and  _43
REMARK   21  A    between atoms: _46  and  _48
REMARK   22  A    between atoms: _48  and  _49
REMARK   23  A    between atoms: _51  and  _53
REMARK   24  A    between atoms: _53  and  _54
REMARK   25  A    between atoms: _53  and  _56
REMARK   26  A    between atoms: _56  and  _57
REMARK   27  A    between atoms: _62  and  _63
REMARK   28  A    between atoms: _65  and  _67
REMARK   29  A    between atoms: _67  and  _68
REMARK   30  A    between atoms: _70  and  _72
REMARK   31  A    between atoms: _72  and  _73
REMARK   32  A    between atoms: _72  and  _75
REMARK   33  A    between atoms: _75  and  _76
REMARK   34  A    between atoms: _76  and  _77
REMARK   35  A    between atoms: _80  and  _82
REMARK   36  A    between atoms: _82  and  _83
REMARK   37  A    between atoms: _82  and  _85
REMARK   38  A    between atoms: _88  and  _90
REMARK   39  A    between atoms: _90  and  _91
REMARK   40  A    between atoms: _90  and  _93
REMARK   41  A    between atoms: _93  and  _94
REMARK   42  A    between atoms: _94  and  _95
REMARK   43  A    between atoms: _100  and  _102
REMARK   44  A    between atoms: _102  and  _103
REMARK   45  A    between atoms: _102  and  _105
REMARK   46  A    between atoms: _105  and  _106
REMARK   47  A    between atoms: _109  and  _111
REMARK   48  A    between atoms: _111  and  _112
REMARK   49  A    between atoms: _115  and  _117
REMARK   50  A    between atoms: _117  and  _118
REMARK   51  A    between atoms: _121  and  _123
REMARK   52  A    between atoms: _123  and  _124
REMARK   53  A    between atoms: _123  and  _126
REMARK   54  A    between atoms: _129  and  _131
REMARK   55  A    between atoms: _131  and  _132
REMARK   56  A    between atoms: _135  and  _137
REMARK   57  A    between atoms: _137  and  _138
REMARK   58  A    between atoms: _137  and  _140
REMARK   59  A    between atoms: _143  and  _145
REMARK   60  A    between atoms: _145  and  _146
REMARK   61  A    between atoms: _145  and  _148
REMARK   62  A    between atoms: _148  and  _149
REMARK   63  A    between atoms: _149  and  _150
REMARK   64  A    between atoms: _150  and  _151
REMARK   65  A    between atoms: _151  and  _152
REMARK   66  A    between atoms: _156  and  _158
REMARK   67  A    between atoms: _158  and  _159
REMARK   68  A    between atoms: _158  and  _161
REMARK   69  A    between atoms: _161  and  _162
REMARK   70  A    between atoms: _165  and  _167
REMARK   71  A    between atoms: _167  and  _168
REMARK   72  A    between atoms: _167  and  _170
REMARK   73  A    between atoms: _173  and  _175
REMARK   74  A    between atoms: _175  and  _176
REMARK   75  A    between atoms: _175  and  _178
REMARK   76  A    between atoms: _178  and  _179
REMARK   77  A    between atoms: _179  and  _180
REMARK   78  A    between atoms: _183  and  _185
REMARK   79  A    between atoms: _185  and  _186
REMARK   80  A    between atoms: _185  and  _188
REMARK   81  A    between atoms: _188  and  _189
REMARK   82  A    between atoms: _194  and  _196
REMARK   83  A    between atoms: _196  and  _197
REMARK   84  A    between atoms: _196  and  _199
REMARK   85  A    between atoms: _202  and  _204
REMARK   86  A    between atoms: _204  and  _205
REMARK   87  A    between atoms: _204  and  _207
REMARK   88  A    between atoms: _207  and  _208
REMARK   89  A    between atoms: _208  and  _209
REMARK   90  A    between atoms: _209  and  _210
REMARK   91  A    between atoms: _210  and  _211
REMARK   92  A    between atoms: _215  and  _217
REMARK   93  A    between atoms: _217  and  _218
REMARK   94  A    between atoms: _217  and  _220
REMARK   95  A    between atoms: _220  and  _221
REMARK   96  A    between atoms: _226  and  _227
REMARK   97  A    between atoms: _229  and  _231
REMARK   98  A    between atoms: _231  and  _232
REMARK   99  A    between atoms: _231  and  _234
REMARK  100  A    between atoms: _234  and  _235
REMARK  101  A    between atoms: _238  and  _240
REMARK  102  A    between atoms: _240  and  _241
REMARK  103  A    between atoms: _240  and  _243
REMARK  104  A    between atoms: _243  and  _244
REMARK  105  A    between atoms: _250  and  _252
REMARK  106  A    between atoms: _252  and  _253
REMARK  107  A    between atoms: _252  and  _255
REMARK  108  A    between atoms: _255  and  _256
REMARK  109  A    between atoms: _259  and  _261
REMARK  110  A    between atoms: _261  and  _262
REMARK  111  A    between atoms: _261  and  _264
REMARK  112  A    between atoms: _264  and  _265
REMARK  113  A    between atoms: _265  and  _266
REMARK  114  A    between atoms: _269  and  _271
REMARK  115  A    between atoms: _271  and  _272
REMARK  116  A    between atoms: _271  and  _274
REMARK  117  A    between atoms: _274  and  _275
REMARK  118  A    between atoms: _280  and  _281
REMARK  119  A    between atoms: _283  and  _285
REMARK  120  A    between atoms: _285  and  _286
REMARK  121  A    between atoms: _285  and  _288
REMARK  122  A    between atoms: _290  and  _292
REMARK  123  A    between atoms: _292  and  _293
REMARK  124  A    between atoms: _292  and  _295
REMARK  125  A    between atoms: _295  and  _296
REMARK  126  A    between atoms: _298  and  _300
REMARK  127  A    between atoms: _300  and  _301
REMARK  128  A    between atoms: _303  and  _305
REMARK  129  A    between atoms: _305  and  _306
REMARK  130  A    between atoms: _308  and  _310
REMARK  131  A    between atoms: _310  and  _311
REMARK  132  A    between atoms: _310  and  _313
REMARK  133  A    between atoms: _313  and  _314
REMARK  134  A    between atoms: _314  and  _315
REMARK  135  A    between atoms: _318  and  _320
REMARK  136  A    between atoms: _320  and  _321
REMARK  137  A    between atoms: _320  and  _323
REMARK  138  A    between atoms: _323  and  _324
REMARK  139  A    between atoms: _327  and  _329
REMARK  140  A    between atoms: _329  and  _330
REMARK  141  A    between atoms: _329  and  _332
REMARK  142  A    between atoms: _332  and  _333
REMARK  143  A    between atoms: _339  and  _341
REMARK  144  A    between atoms: _341  and  _342
REMARK  145  A    between atoms: _341  and  _344
REMARK  146  A    between atoms: _344  and  _345
REMARK  147  A    between atoms: _348  and  _350
REMARK  148  A    between atoms: _350  and  _351
REMARK  149  A    between atoms: _350  and  _353
REMARK  150  A    between atoms: _353  and  _354
REMARK  151  A    between atoms: _359  and  _361
REMARK  152  A    between atoms: _361  and  _362
REMARK  153  A    between atoms: _361  and  _364
REMARK  154  A    between atoms: _364  and  _365
REMARK  155  A    between atoms: _368  and  _370
REMARK  156  A    between atoms: _370  and  _371
REMARK  157  A    between atoms: _370  and  _373
REMARK  158  A    between atoms: _373  and  _374
REMARK  159  A    between atoms: _374  and  _375
REMARK  160  A    between atoms: _375  and  _376
REMARK  161  A    between atoms: _376  and  _377
REMARK  162  A    between atoms: _382  and  _383
REMARK  163  A    between atoms: _388  and  _390
REMARK  164  A    between atoms: _390  and  _391
REMARK  165  A    between atoms: _390  and  _393
REMARK  166  A    between atoms: _393  and  _394
REMARK  167  A    between atoms: _394  and  _395
REMARK  168  A    between atoms: _398  and  _400
REMARK  169  A    between atoms: _400  and  _401
REMARK  170  A    between atoms: _400  and  _403
REMARK  171  A    between atoms: _403  and  _404
REMARK  172  A    between atoms: _409  and  _411
REMARK  173  A    between atoms: _411  and  _412
REMARK  174  A    between atoms: _411  and  _414
REMARK  175  A    between atoms: _414  and  _415
REMARK  176  A    between atoms: _418  and  _420
REMARK  177  A    between atoms: _420  and  _421
REMARK  178  A    between atoms: _420  and  _423
REMARK  179  A    between atoms: _423  and  _424
REMARK  180  A    between atoms: _427  and  _429
REMARK  181  A    between atoms: _429  and  _430
REMARK  182  A    between atoms: _429  and  _432
REMARK  183  A    between atoms: _432  and  _433
REMARK  184  A    between atoms: _436  and  _438
REMARK  185  A    between atoms: _438  and  _439
REMARK  186  A    between atoms: _438  and  _441
REMARK  187  A    between atoms: _441  and  _442
REMARK  188  A    between atoms: _445  and  _447
REMARK  189  A    between atoms: _447  and  _448
REMARK  190  A    between atoms: _447  and  _450
REMARK  191  A    between atoms: _450  and  _451
REMARK  192  A    between atoms: _451  and  _452
REMARK  193  A    between atoms: _452  and  _453
REMARK  194  A    between atoms: _453  and  _454
REMARK  195  A    between atoms: _458  and  _460
REMARK  196  A    between atoms: _460  and  _461
REMARK  197  A    between atoms: _460  and  _463
REMARK  198  A    between atoms: _463  and  _464
REMARK  199  A    between atoms: _467  and  _469
REMARK  200  A    between atoms: _469  and  _470
REMARK  201  A    between atoms: _469  and  _472
REMARK  202  A    between atoms: _472  and  _473
REMARK  203  A    between atoms: _475  and  _477
REMARK  204  A    between atoms: _477  and  _478
REMARK  205  A    between atoms: _477  and  _480
REMARK  206  A    between atoms: _480  and  _481
REMARK  207  A    between atoms: _484  and  _486
REMARK  208  A    between atoms: _486  and  _487
REMARK  209  A    between atoms: _486  and  _489
REMARK  210  A    between atoms: _489  and  _490
REMARK  211  A    between atoms: _496  and  _498
REMARK  212  A    between atoms: _498  and  _499
REMARK  213  A    between atoms: _501  and  _503
REMARK  214  A    between atoms: _503  and  _504
REMARK  215  A    between atoms: _503  and  _506
REMARK  216  A    between atoms: _506  and  _507
REMARK                            x       y       z     vdW  Elec       q    Type
REMARK                         _______ _______ _______ _____ _____    ______ ____
ROOT
ATOM      1  O   HOH     1       9.062   1.724  12.979  0.00  0.00    +0.000 OA
ENDROOT
TORSDOF 0
REMARK  Name = ../refined-set-2016/1nvr/1nvr_pocket.pdb
REMARK  216 active torsions:
REMARK  status: ('A' for Active; 'I' for Inactive)
REMARK    1  A    between atoms: _1  and  _3
REMARK    2  A    between atoms: _3  and  _4
REMARK    3  A    between atoms: _3  and  _6
REMARK    4  A    between atoms: _6  and  _7
REMARK    5  A    between atoms: _7  and  _8
REMARK    6  A    between atoms: _13  and  _15
REMARK    7  A    between atoms: _15  and  _16
REMARK    8  A    between atoms: _15  and  _18
REMARK    9  A    between atoms: _18  and  _19
REMARK   10  A    between atoms: _22  and  _24
REMARK   11  A    between atoms: _24  and  _25
REMARK   12  A    between atoms: _24  and  _27
REMARK   13  A    between atoms: _27  and  _28
REMARK   14  A    between atoms: _31  and  _33
REMARK   15  A    between atoms: _33  and  _34
REMARK   16  A    between atoms: _36  and  _38
REMARK   17  A    between atoms: _38  and  _39
REMARK   18  A    between atoms: _38  and  _41
REMARK   19  A    between atoms: _41  and  _42
REMARK   20  A    between atoms: _42  and  _43
REMARK   21  A    between atoms: _46  and  _48
REMARK   22  A    between atoms: _48  and  _49
REMARK   23  A    between atoms: _51  and  _53
REMARK   24  A    between atoms: _53  and  _54
REMARK   25  A    between atoms: _53  and  _56
REMARK   26  A    between atoms: _56  and  _57
REMARK   27  A    between atoms: _62  and  _63
REMARK   28  A    between atoms: _65  and  _67
REMARK   29  A    between atoms: _67  and  _68
REMARK   30  A    between atoms: _70  and  _72
REMARK   31  A    between atoms: _72  and  _73
REMARK   32  A    between atoms: _72  and  _75
REMARK   33  A    between atoms: _75  and  _76
REMARK   34  A    between atoms: _76  and  _77
REMARK   35  A    between atoms: _80  and  _82
REMARK   36  A    between atoms: _82  and  _83
REMARK   37  A    between atoms: _82  and  _85
REMARK   38  A    between atoms: _88  and  _90
REMARK   39  A    between atoms: _90  and  _91
REMARK   40  A    between atoms: _90  and  _93
REMARK   41  A    between atoms: _93  and  _94
REMARK   42  A    between atoms: _94  and  _95
REMARK   43  A    between atoms: _100  and  _102
REMARK   44  A    between atoms: _102  and  _103
REMARK   45  A    between atoms: _102  and  _105
REMARK   46  A    between atoms: _105  and  _106
REMARK   47  A    between atoms: _109  and  _111
REMARK   48  A    between atoms: _111  and  _112
REMARK   49  A    between atoms: _115  and  _117
REMARK   50  A    between atoms: _117  and  _118
REMARK   51  A    between atoms: _121  and  _123
REMARK   52  A    between atoms: _123  and  _124
REMARK   53  A    between atoms: _123  and  _126
REMARK   54  A    between atoms: _129  and  _131
REMARK   55  A    between atoms: _131  and  _132
REMARK   56  A    between atoms: _135  and  _137
REMARK   57  A    between atoms: _137  and  _138
REMARK   58  A    between atoms: _137  and  _140
REMARK   59  A    between atoms: _143  and  _145
REMARK   60  A    between atoms: _145  and  _146
REMARK   61  A    between atoms: _145  and  _148
REMARK   62  A    between atoms: _148  and  _149
REMARK   63  A    between atoms: _149  and  _150
REMARK   64  A    between atoms: _150  and  _151
REMARK   65  A    between atoms: _151  and  _152
REMARK   66  A    between atoms: _156  and  _158
REMARK   67  A    between atoms: _158  and  _159
REMARK   68  A    between atoms: _158  and  _161
REMARK   69  A    between atoms: _161  and  _162
REMARK   70  A    between atoms: _165  and  _167
REMARK   71  A    between atoms: _167  and  _168
REMARK   72  A    between atoms: _167  and  _170
REMARK   73  A    between atoms: _173  and  _175
REMARK   74  A    between atoms: _175  and  _176
REMARK   75  A    between atoms: _175  and  _178
REMARK   76  A    between atoms: _178  and  _179
REMARK   77  A    between atoms: _179  and  _180
REMARK   78  A    between atoms: _183  and  _185
REMARK   79  A    between atoms: _185  and  _186
REMARK   80  A    between atoms: _185  and  _188
REMARK   81  A    between atoms: _188  and  _189
REMARK   82  A    between atoms: _194  and  _196
REMARK   83  A    between atoms: _196  and  _197
REMARK   84  A    between atoms: _196  and  _199
REMARK   85  A    between atoms: _202  and  _204
REMARK   86  A    between atoms: _204  and  _205
REMARK   87  A    between atoms: _204  and  _207
REMARK   88  A    between atoms: _207  and  _208
REMARK   89  A    between atoms: _208  and  _209
REMARK   90  A    between atoms: _209  and  _210
REMARK   91  A    between atoms: _210  and  _211
REMARK   92  A    between atoms: _215  and  _217
REMARK   93  A    between atoms: _217  and  _218
REMARK   94  A    between atoms: _217  and  _220
REMARK   95  A    between atoms: _220  and  _221
REMARK   96  A    between atoms: _226  and  _227
REMARK   97  A    between atoms: _229  and  _231
REMARK   98  A    between atoms: _231  and  _232
REMARK   99  A    between atoms: _231  and  _234
REMARK  100  A    between atoms: _234  and  _235
REMARK  101  A    between atoms: _238  and  _240
REMARK  102  A    between atoms: _240  and  _241
REMARK  103  A    between atoms: _240  and  _243
REMARK  104  A    between atoms: _243  and  _244
REMARK  105  A    between atoms: _250  and  _252
REMARK  106  A    between atoms: _252  and  _253
REMARK  107  A    between atoms: _252  and  _255
REMARK  108  A    between atoms: _255  and  _256
REMARK  109  A    between atoms: _259  and  _261
REMARK  110  A    between atoms: _261  and  _262
REMARK  111  A    between atoms: _261  and  _264
REMARK  112  A    between atoms: _264  and  _265
REMARK  113  A    between atoms: _265  and  _266
REMARK  114  A    between atoms: _269  and  _271
REMARK  115  A    between atoms: _271  and  _272
REMARK  116  A    between atoms: _271  and  _274
REMARK  117  A    between atoms: _274  and  _275
REMARK  118  A    between atoms: _280  and  _281
REMARK  119  A    between atoms: _283  and  _285
REMARK  120  A    between atoms: _285  and  _286
REMARK  121  A    between atoms: _285  and  _288
REMARK  122  A    between atoms: _290  and  _292
REMARK  123  A    between atoms: _292  and  _293
REMARK  124  A    between atoms: _292  and  _295
REMARK  125  A    between atoms: _295  and  _296
REMARK  126  A    between atoms: _298  and  _300
REMARK  127  A    between atoms: _300  and  _301
REMARK  128  A    between atoms: _303  and  _305
REMARK  129  A    between atoms: _305  and  _306
REMARK  130  A    between atoms: _308  and  _310
REMARK  131  A    between atoms: _310  and  _311
REMARK  132  A    between atoms: _310  and  _313
REMARK  133  A    between atoms: _313  and  _314
REMARK  134  A    between atoms: _314  and  _315
REMARK  135  A    between atoms: _318  and  _320
REMARK  136  A    between atoms: _320  and  _321
REMARK  137  A    between atoms: _320  and  _323
REMARK  138  A    between atoms: _323  and  _324
REMARK  139  A    between atoms: _327  and  _329
REMARK  140  A    between atoms: _329  and  _330
REMARK  141  A    between atoms: _329  and  _332
REMARK  142  A    between atoms: _332  and  _333
REMARK  143  A    between atoms: _339  and  _341
REMARK  144  A    between atoms: _341  and  _342
REMARK  145  A    between atoms: _341  and  _344
REMARK  146  A    between atoms: _344  and  _345
REMARK  147  A    between atoms: _348  and  _350
REMARK  148  A    between atoms: _350  and  _351
REMARK  149  A    between atoms: _350  and  _353
REMARK  150  A    between atoms: _353  and  _354
REMARK  151  A    between atoms: _359  and  _361
REMARK  152  A    between atoms: _361  and  _362
REMARK  153  A    between atoms: _361  and  _364
REMARK  154  A    between atoms: _364  and  _365
REMARK  155  A    between atoms: _368  and  _370
REMARK  156  A    between atoms: _370  and  _371
REMARK  157  A    between atoms: _370  and  _373
REMARK  158  A    between atoms: _373  and  _374
REMARK  159  A    between atoms: _374  and  _375
REMARK  160  A    between atoms: _375  and  _376
REMARK  161  A    between atoms: _376  and  _377
REMARK  162  A    between atoms: _382  and  _383
REMARK  163  A    between atoms: _388  and  _390
REMARK  164  A    between atoms: _390  and  _391
REMARK  165  A    between atoms: _390  and  _393
REMARK  166  A    between atoms: _393  and  _394
REMARK  167  A    between atoms: _394  and  _395
REMARK  168  A    between atoms: _398  and  _400
REMARK  169  A    between atoms: _400  and  _401
REMARK  170  A    between atoms: _400  and  _403
REMARK  171  A    between atoms: _403  and  _404
REMARK  172  A    between atoms: _409  and  _411
REMARK  173  A    between atoms: _411  and  _412
REMARK  174  A    between atoms: _411  and  _414
REMARK  175  A    between atoms: _414  and  _415
REMARK  176  A    between atoms: _418  and  _420
REMARK  177  A    between atoms: _420  and  _421
REMARK  178  A    between atoms: _420  and  _423
REMARK  179  A    between atoms: _423  and  _424
REMARK  180  A    between atoms: _427  and  _429
REMARK  181  A    between atoms: _429  and  _430
REMARK  182  A    between atoms: _429  and  _432
REMARK  183  A    between atoms: _432  and  _433
REMARK  184  A    between atoms: _436  and  _438
REMARK  185  A    between atoms: _438  and  _439
REMARK  186  A    between atoms: _438  and  _441
REMARK  187  A    between atoms: _441  and  _442
REMARK  188  A    between atoms: _445  and  _447
REMARK  189  A    between atoms: _447  and  _448
REMARK  190  A    between atoms: _447  and  _450
REMARK  191  A    between atoms: _450  and  _451
REMARK  192  A    between atoms: _451  and  _452
REMARK  193  A    between atoms: _452  and  _453
REMARK  194  A    between atoms: _453  and  _454
REMARK  195  A    between atoms: _458  and  _460
REMARK  196  A    between atoms: _460  and  _461
REMARK  197  A    between atoms: _460  and  _463
REMARK  198  A    between atoms: _463  and  _464
REMARK  199  A    between atoms: _467  and  _469
REMARK  200  A    between atoms: _469  and  _470
REMARK  201  A    between atoms: _469  and  _472
REMARK  202  A    between atoms: _472  and  _473
REMARK  203  A    between atoms: _475  and  _477
REMARK  204  A    between atoms: _477  and  _478
REMARK  205  A    between atoms: _477  and  _480
REMARK  206  A    between atoms: _480  and  _481
REMARK  207  A    between atoms: _484  and  _486
REMARK  208  A    between atoms: _486  and  _487
REMARK  209  A    between atoms: _486  and  _489
REMARK  210  A    between atoms: _489  and  _490
REMARK  211  A    between atoms: _496  and  _498
REMARK  212  A    between atoms: _498  and  _499
REMARK  213  A    between atoms: _501  and  _503
REMARK  214  A    between atoms: _503  and  _504
REMARK  215  A    between atoms: _503  and  _506
REMARK  216  A    between atoms: _506  and  _507
REMARK                            x       y       z     vdW  Elec       q    Type
REMARK                         _______ _______ _______ _____ _____    ______ ____
ROOT
ATOM      1  O   HOH     1      -0.955   1.965  11.436  0.00  0.00    +0.000 OA
ENDROOT
TORSDOF 0
REMARK  Name = ../refined-set-2016/1nvr/1nvr_pocket.pdb
REMARK  216 active torsions:
REMARK  status: ('A' for Active; 'I' for Inactive)
REMARK    1  A    between atoms: _1  and  _3
REMARK    2  A    between atoms: _3  and  _4
REMARK    3  A    between atoms: _3  and  _6
REMARK    4  A    between atoms: _6  and  _7
REMARK    5  A    between atoms: _7  and  _8
REMARK    6  A    between atoms: _13  and  _15
REMARK    7  A    between atoms: _15  and  _16
REMARK    8  A    between atoms: _15  and  _18
REMARK    9  A    between atoms: _18  and  _19
REMARK   10  A    between atoms: _22  and  _24
REMARK   11  A    between atoms: _24  and  _25
REMARK   12  A    between atoms: _24  and  _27
REMARK   13  A    between atoms: _27  and  _28
REMARK   14  A    between atoms: _31  and  _33
REMARK   15  A    between atoms: _33  and  _34
REMARK   16  A    between atoms: _36  and  _38
REMARK   17  A    between atoms: _38  and  _39
REMARK   18  A    between atoms: _38  and  _41
REMARK   19  A    between atoms: _41  and  _42
REMARK   20  A    between atoms: _42  and  _43
REMARK   21  A    between atoms: _46  and  _48
REMARK   22  A    between atoms: _48  and  _49
REMARK   23  A    between atoms: _51  and  _53
REMARK   24  A    between atoms: _53  and  _54
REMARK   25  A    between atoms: _53  and  _56
REMARK   26  A    between atoms: _56  and  _57
REMARK   27  A    between atoms: _62  and  _63
REMARK   28  A    between atoms: _65  and  _67
REMARK   29  A    between atoms: _67  and  _68
REMARK   30  A    between atoms: _70  and  _72
REMARK   31  A    between atoms: _72  and  _73
REMARK   32  A    between atoms: _72  and  _75
REMARK   33  A    between atoms: _75  and  _76
REMARK   34  A    between atoms: _76  and  _77
REMARK   35  A    between atoms: _80  and  _82
REMARK   36  A    between atoms: _82  and  _83
REMARK   37  A    between atoms: _82  and  _85
REMARK   38  A    between atoms: _88  and  _90
REMARK   39  A    between atoms: _90  and  _91
REMARK   40  A    between atoms: _90  and  _93
REMARK   41  A    between atoms: _93  and  _94
REMARK   42  A    between atoms: _94  and  _95
REMARK   43  A    between atoms: _100  and  _102
REMARK   44  A    between atoms: _102  and  _103
REMARK   45  A    between atoms: _102  and  _105
REMARK   46  A    between atoms: _105  and  _106
REMARK   47  A    between atoms: _109  and  _111
REMARK   48  A    between atoms: _111  and  _112
REMARK   49  A    between atoms: _115  and  _117
REMARK   50  A    between atoms: _117  and  _118
REMARK   51  A    between atoms: _121  and  _123
REMARK   52  A    between atoms: _123  and  _124
REMARK   53  A    between atoms: _123  and  _126
REMARK   54  A    between atoms: _129  and  _131
REMARK   55  A    between atoms: _131  and  _132
REMARK   56  A    between atoms: _135  and  _137
REMARK   57  A    between atoms: _137  and  _138
REMARK   58  A    between atoms: _137  and  _140
REMARK   59  A    between atoms: _143  and  _145
REMARK   60  A    between atoms: _145  and  _146
REMARK   61  A    between atoms: _145  and  _148
REMARK   62  A    between atoms: _148  and  _149
REMARK   63  A    between atoms: _149  and  _150
REMARK   64  A    between atoms: _150  and  _151
REMARK   65  A    between atoms: _151  and  _152
REMARK   66  A    between atoms: _156  and  _158
REMARK   67  A    between atoms: _158  and  _159
REMARK   68  A    between atoms: _158  and  _161
REMARK   69  A    between atoms: _161  and  _162
REMARK   70  A    between atoms: _165  and  _167
REMARK   71  A    between atoms: _167  and  _168
REMARK   72  A    between atoms: _167  and  _170
REMARK   73  A    between atoms: _173  and  _175
REMARK   74  A    between atoms: _175  and  _176
REMARK   75  A    between atoms: _175  and  _178
REMARK   76  A    between atoms: _178  and  _179
REMARK   77  A    between atoms: _179  and  _180
REMARK   78  A    between atoms: _183  and  _185
REMARK   79  A    between atoms: _185  and  _186
REMARK   80  A    between atoms: _185  and  _188
REMARK   81  A    between atoms: _188  and  _189
REMARK   82  A    between atoms: _194  and  _196
REMARK   83  A    between atoms: _196  and  _197
REMARK   84  A    between atoms: _196  and  _199
REMARK   85  A    between atoms: _202  and  _204
REMARK   86  A    between atoms: _204  and  _205
REMARK   87  A    between atoms: _204  and  _207
REMARK   88  A    between atoms: _207  and  _208
REMARK   89  A    between atoms: _208  and  _209
REMARK   90  A    between atoms: _209  and  _210
REMARK   91  A    between atoms: _210  and  _211
REMARK   92  A    between atoms: _215  and  _217
REMARK   93  A    between atoms: _217  and  _218
REMARK   94  A    between atoms: _217  and  _220
REMARK   95  A    between atoms: _220  and  _221
REMARK   96  A    between atoms: _226  and  _227
REMARK   97  A    between atoms: _229  and  _231
REMARK   98  A    between atoms: _231  and  _232
REMARK   99  A    between atoms: _231  and  _234
REMARK  100  A    between atoms: _234  and  _235
REMARK  101  A    between atoms: _238  and  _240
REMARK  102  A    between atoms: _240  and  _241
REMARK  103  A    between atoms: _240  and  _243
REMARK  104  A    between atoms: _243  and  _244
REMARK  105  A    between atoms: _250  and  _252
REMARK  106  A    between atoms: _252  and  _253
REMARK  107  A    between atoms: _252  and  _255
REMARK  108  A    between atoms: _255  and  _256
REMARK  109  A    between atoms: _259  and  _261
REMARK  110  A    between atoms: _261  and  _262
REMARK  111  A    between atoms: _261  and  _264
REMARK  112  A    between atoms: _264  and  _265
REMARK  113  A    between atoms: _265  and  _266
REMARK  114  A    between atoms: _269  and  _271
REMARK  115  A    between atoms: _271  and  _272
REMARK  116  A    between atoms: _271  and  _274
REMARK  117  A    between atoms: _274  and  _275
REMARK  118  A    between atoms: _280  and  _281
REMARK  119  A    between atoms: _283  and  _285
REMARK  120  A    between atoms: _285  and  _286
REMARK  121  A    between atoms: _285  and  _288
REMARK  122  A    between atoms: _290  and  _292
REMARK  123  A    between atoms: _292  and  _293
REMARK  124  A    between atoms: _292  and  _295
REMARK  125  A    between atoms: _295  and  _296
REMARK  126  A    between atoms: _298  and  _300
REMARK  127  A    between atoms: _300  and  _301
REMARK  128  A    between atoms: _303  and  _305
REMARK  129  A    between atoms: _305  and  _306
REMARK  130  A    between atoms: _308  and  _310
REMARK  131  A    between atoms: _310  and  _311
REMARK  132  A    between atoms: _310  and  _313
REMARK  133  A    between atoms: _313  and  _314
REMARK  134  A    between atoms: _314  and  _315
REMARK  135  A    between atoms: _318  and  _320
REMARK  136  A    between atoms: _320  and  _321
REMARK  137  A    between atoms: _320  and  _323
REMARK  138  A    between atoms: _323  and  _324
REMARK  139  A    between atoms: _327  and  _329
REMARK  140  A    between atoms: _329  and  _330
REMARK  141  A    between atoms: _329  and  _332
REMARK  142  A    between atoms: _332  and  _333
REMARK  143  A    between atoms: _339  and  _341
REMARK  144  A    between atoms: _341  and  _342
REMARK  145  A    between atoms: _341  and  _344
REMARK  146  A    between atoms: _344  and  _345
REMARK  147  A    between atoms: _348  and  _350
REMARK  148  A    between atoms: _350  and  _351
REMARK  149  A    between atoms: _350  and  _353
REMARK  150  A    between atoms: _353  and  _354
REMARK  151  A    between atoms: _359  and  _361
REMARK  152  A    between atoms: _361  and  _362
REMARK  153  A    between atoms: _361  and  _364
REMARK  154  A    between atoms: _364  and  _365
REMARK  155  A    between atoms: _368  and  _370
REMARK  156  A    between atoms: _370  and  _371
REMARK  157  A    between atoms: _370  and  _373
REMARK  158  A    between atoms: _373  and  _374
REMARK  159  A    between atoms: _374  and  _375
REMARK  160  A    between atoms: _375  and  _376
REMARK  161  A    between atoms: _376  and  _377
REMARK  162  A    between atoms: _382  and  _383
REMARK  163  A    between atoms: _388  and  _390
REMARK  164  A    between atoms: _390  and  _391
REMARK  165  A    between atoms: _390  and  _393
REMARK  166  A    between atoms: _393  and  _394
REMARK  167  A    between atoms: _394  and  _395
REMARK  168  A    between atoms: _398  and  _400
REMARK  169  A    between atoms: _400  and  _401
REMARK  170  A    between atoms: _400  and  _403
REMARK  171  A    between atoms: _403  and  _404
REMARK  172  A    between atoms: _409  and  _411
REMARK  173  A    between atoms: _411  and  _412
REMARK  174  A    between atoms: _411  and  _414
REMARK  175  A    between atoms: _414  and  _415
REMARK  176  A    between atoms: _418  and  _420
REMARK  177  A    between atoms: _420  and  _421
REMARK  178  A    between atoms: _420  and  _423
REMARK  179  A    between atoms: _423  and  _424
REMARK  180  A    between atoms: _427  and  _429
REMARK  181  A    between atoms: _429  and  _430
REMARK  182  A    between atoms: _429  and  _432
REMARK  183  A    between atoms: _432  and  _433
REMARK  184  A    between atoms: _436  and  _438
REMARK  185  A    between atoms: _438  and  _439
REMARK  186  A    between atoms: _438  and  _441
REMARK  187  A    between atoms: _441  and  _442
REMARK  188  A    between atoms: _445  and  _447
REMARK  189  A    between atoms: _447  and  _448
REMARK  190  A    between atoms: _447  and  _450
REMARK  191  A    between atoms: _450  and  _451
REMARK  192  A    between atoms: _451  and  _452
REMARK  193  A    between atoms: _452  and  _453
REMARK  194  A    between atoms: _453  and  _454
REMARK  195  A    between atoms: _458  and  _460
REMARK  196  A    between atoms: _460  and  _461
REMARK  197  A    between atoms: _460  and  _463
REMARK  198  A    between atoms: _463  and  _464
REMARK  199  A    between atoms: _467  and  _469
REMARK  200  A    between atoms: _469  and  _470
REMARK  201  A    between atoms: _469  and  _472
REMARK  202  A    between atoms: _472  and  _473
REMARK  203  A    between atoms: _475  and  _477
REMARK  204  A    between atoms: _477  and  _478
REMARK  205  A    between atoms: _477  and  _480
REMARK  206  A    between atoms: _480  and  _481
REMARK  207  A    between atoms: _484  and  _486
REMARK  208  A    between atoms: _486  and  _487
REMARK  209  A    between atoms: _486  and  _489
REMARK  210  A    between atoms: _489  and  _490
REMARK  211  A    between atoms: _496  and  _498
REMARK  212  A    between atoms: _498  and  _499
REMARK  213  A    between atoms: _501  and  _503
REMARK  214  A    between atoms: _503  and  _504
REMARK  215  A    between atoms: _503  and  _506
REMARK  216  A    between atoms: _506  and  _507
REMARK                            x       y       z     vdW  Elec       q    Type
REMARK                         _______ _______ _______ _____ _____    ______ ____
ROOT
ATOM      1  O   HOH     1       3.312  -0.588   5.571  0.00  0.00    +0.000 OA
ENDROOT
TORSDOF 0
REMARK  Name = ../refined-set-2016/1nvr/1nvr_pocket.pdb
REMARK  216 active torsions:
REMARK  status: ('A' for Active; 'I' for Inactive)
REMARK    1  A    between atoms: _1  and  _3
REMARK    2  A    between atoms: _3  and  _4
REMARK    3  A    between atoms: _3  and  _6
REMARK    4  A    between atoms: _6  and  _7
REMARK    5  A    between atoms: _7  and  _8
REMARK    6  A    between atoms: _13  and  _15
REMARK    7  A    between atoms: _15  and  _16
REMARK    8  A    between atoms: _15  and  _18
REMARK    9  A    between atoms: _18  and  _19
REMARK   10  A    between atoms: _22  and  _24
REMARK   11  A    between atoms: _24  and  _25
REMARK   12  A    between atoms: _24  and  _27
REMARK   13  A    between atoms: _27  and  _28
REMARK   14  A    between atoms: _31  and  _33
REMARK   15  A    between atoms: _33  and  _34
REMARK   16  A    between atoms: _36  and  _38
REMARK   17  A    between atoms: _38  and  _39
REMARK   18  A    between atoms: _38  and  _41
REMARK   19  A    between atoms: _41  and  _42
REMARK   20  A    between atoms: _42  and  _43
REMARK   21  A    between atoms: _46  and  _48
REMARK   22  A    between atoms: _48  and  _49
REMARK   23  A    between atoms: _51  and  _53
REMARK   24  A    between atoms: _53  and  _54
REMARK   25  A    between atoms: _53  and  _56
REMARK   26  A    between atoms: _56  and  _57
REMARK   27  A    between atoms: _62  and  _63
REMARK   28  A    between atoms: _65  and  _67
REMARK   29  A    between atoms: _67  and  _68
REMARK   30  A    between atoms: _70  and  _72
REMARK   31  A    between atoms: _72  and  _73
REMARK   32  A    between atoms: _72  and  _75
REMARK   33  A    between atoms: _75  and  _76
REMARK   34  A    between atoms: _76  and  _77
REMARK   35  A    between atoms: _80  and  _82
REMARK   36  A    between atoms: _82  and  _83
REMARK   37  A    between atoms: _82  and  _85
REMARK   38  A    between atoms: _88  and  _90
REMARK   39  A    between atoms: _90  and  _91
REMARK   40  A    between atoms: _90  and  _93
REMARK   41  A    between atoms: _93  and  _94
REMARK   42  A    between atoms: _94  and  _95
REMARK   43  A    between atoms: _100  and  _102
REMARK   44  A    between atoms: _102  and  _103
REMARK   45  A    between atoms: _102  and  _105
REMARK   46  A    between atoms: _105  and  _106
REMARK   47  A    between atoms: _109  and  _111
REMARK   48  A    between atoms: _111  and  _112
REMARK   49  A    between atoms: _115  and  _117
REMARK   50  A    between atoms: _117  and  _118
REMARK   51  A    between atoms: _121  and  _123
REMARK   52  A    between atoms: _123  and  _124
REMARK   53  A    between atoms: _123  and  _126
REMARK   54  A    between atoms: _129  and  _131
REMARK   55  A    between atoms: _131  and  _132
REMARK   56  A    between atoms: _135  and  _137
REMARK   57  A    between atoms: _137  and  _138
REMARK   58  A    between atoms: _137  and  _140
REMARK   59  A    between atoms: _143  and  _145
REMARK   60  A    between atoms: _145  and  _146
REMARK   61  A    between atoms: _145  and  _148
REMARK   62  A    between atoms: _148  and  _149
REMARK   63  A    between atoms: _149  and  _150
REMARK   64  A    between atoms: _150  and  _151
REMARK   65  A    between atoms: _151  and  _152
REMARK   66  A    between atoms: _156  and  _158
REMARK   67  A    between atoms: _158  and  _159
REMARK   68  A    between atoms: _158  and  _161
REMARK   69  A    between atoms: _161  and  _162
REMARK   70  A    between atoms: _165  and  _167
REMARK   71  A    between atoms: _167  and  _168
REMARK   72  A    between atoms: _167  and  _170
REMARK   73  A    between atoms: _173  and  _175
REMARK   74  A    between atoms: _175  and  _176
REMARK   75  A    between atoms: _175  and  _178
REMARK   76  A    between atoms: _178  and  _179
REMARK   77  A    between atoms: _179  and  _180
REMARK   78  A    between atoms: _183  and  _185
REMARK   79  A    between atoms: _185  and  _186
REMARK   80  A    between atoms: _185  and  _188
REMARK   81  A    between atoms: _188  and  _189
REMARK   82  A    between atoms: _194  and  _196
REMARK   83  A    between atoms: _196  and  _197
REMARK   84  A    between atoms: _196  and  _199
REMARK   85  A    between atoms: _202  and  _204
REMARK   86  A    between atoms: _204  and  _205
REMARK   87  A    between atoms: _204  and  _207
REMARK   88  A    between atoms: _207  and  _208
REMARK   89  A    between atoms: _208  and  _209
REMARK   90  A    between atoms: _209  and  _210
REMARK   91  A    between atoms: _210  and  _211
REMARK   92  A    between atoms: _215  and  _217
REMARK   93  A    between atoms: _217  and  _218
REMARK   94  A    between atoms: _217  and  _220
REMARK   95  A    between atoms: _220  and  _221
REMARK   96  A    between atoms: _226  and  _227
REMARK   97  A    between atoms: _229  and  _231
REMARK   98  A    between atoms: _231  and  _232
REMARK   99  A    between atoms: _231  and  _234
REMARK  100  A    between atoms: _234  and  _235
REMARK  101  A    between atoms: _238  and  _240
REMARK  102  A    between atoms: _240  and  _241
REMARK  103  A    between atoms: _240  and  _243
REMARK  104  A    between atoms: _243  and  _244
REMARK  105  A    between atoms: _250  and  _252
REMARK  106  A    between atoms: _252  and  _253
REMARK  107  A    between atoms: _252  and  _255
REMARK  108  A    between atoms: _255  and  _256
REMARK  109  A    between atoms: _259  and  _261
REMARK  110  A    between atoms: _261  and  _262
REMARK  111  A    between atoms: _261  and  _264
REMARK  112  A    between atoms: _264  and  _265
REMARK  113  A    between atoms: _265  and  _266
REMARK  114  A    between atoms: _269  and  _271
REMARK  115  A    between atoms: _271  and  _272
REMARK  116  A    between atoms: _271  and  _274
REMARK  117  A    between atoms: _274  and  _275
REMARK  118  A    between atoms: _280  and  _281
REMARK  119  A    between atoms: _283  and  _285
REMARK  120  A    between atoms: _285  and  _286
REMARK  121  A    between atoms: _285  and  _288
REMARK  122  A    between atoms: _290  and  _292
REMARK  123  A    between atoms: _292  and  _293
REMARK  124  A    between atoms: _292  and  _295
REMARK  125  A    between atoms: _295  and  _296
REMARK  126  A    between atoms: _298  and  _300
REMARK  127  A    between atoms: _300  and  _301
REMARK  128  A    between atoms: _303  and  _305
REMARK  129  A    between atoms: _305  and  _306
REMARK  130  A    between atoms: _308  and  _310
REMARK  131  A    between atoms: _310  and  _311
REMARK  132  A    between atoms: _310  and  _313
REMARK  133  A    between atoms: _313  and  _314
REMARK  134  A    between atoms: _314  and  _315
REMARK  135  A    between atoms: _318  and  _320
REMARK  136  A    between atoms: _320  and  _321
REMARK  137  A    between atoms: _320  and  _323
REMARK  138  A    between atoms: _323  and  _324
REMARK  139  A    between atoms: _327  and  _329
REMARK  140  A    between atoms: _329  and  _330
REMARK  141  A    between atoms: _329  and  _332
REMARK  142  A    between atoms: _332  and  _333
REMARK  143  A    between atoms: _339  and  _341
REMARK  144  A    between atoms: _341  and  _342
REMARK  145  A    between atoms: _341  and  _344
REMARK  146  A    between atoms: _344  and  _345
REMARK  147  A    between atoms: _348  and  _350
REMARK  148  A    between atoms: _350  and  _351
REMARK  149  A    between atoms: _350  and  _353
REMARK  150  A    between atoms: _353  and  _354
REMARK  151  A    between atoms: _359  and  _361
REMARK  152  A    between atoms: _361  and  _362
REMARK  153  A    between atoms: _361  and  _364
REMARK  154  A    between atoms: _364  and  _365
REMARK  155  A    between atoms: _368  and  _370
REMARK  156  A    between atoms: _370  and  _371
REMARK  157  A    between atoms: _370  and  _373
REMARK  158  A    between atoms: _373  and  _374
REMARK  159  A    between atoms: _374  and  _375
REMARK  160  A    between atoms: _375  and  _376
REMARK  161  A    between atoms: _376  and  _377
REMARK  162  A    between atoms: _382  and  _383
REMARK  163  A    between atoms: _388  and  _390
REMARK  164  A    between atoms: _390  and  _391
REMARK  165  A    between atoms: _390  and  _393
REMARK  166  A    between atoms: _393  and  _394
REMARK  167  A    between atoms: _394  and  _395
REMARK  168  A    between atoms: _398  and  _400
REMARK  169  A    between atoms: _400  and  _401
REMARK  170  A    between atoms: _400  and  _403
REMARK  171  A    between atoms: _403  and  _404
REMARK  172  A    between atoms: _409  and  _411
REMARK  173  A    between atoms: _411  and  _412
REMARK  174  A    between atoms: _411  and  _414
REMARK  175  A    between atoms: _414  and  _415
REMARK  176  A    between atoms: _418  and  _420
REMARK  177  A    between atoms: _420  and  _421
REMARK  178  A    between atoms: _420  and  _423
REMARK  179  A    between atoms: _423  and  _424
REMARK  180  A    between atoms: _427  and  _429
REMARK  181  A    between atoms: _429  and  _430
REMARK  182  A    between atoms: _429  and  _432
REMARK  183  A    between atoms: _432  and  _433
REMARK  184  A    between atoms: _436  and  _438
REMARK  185  A    between atoms: _438  and  _439
REMARK  186  A    between atoms: _438  and  _441
REMARK  187  A    between atoms: _441  and  _442
REMARK  188  A    between atoms: _445  and  _447
REMARK  189  A    between atoms: _447  and  _448
REMARK  190  A    between atoms: _447  and  _450
REMARK  191  A    between atoms: _450  and  _451
REMARK  192  A    between atoms: _451  and  _452
REMARK  193  A    between atoms: _452  and  _453
REMARK  194  A    between atoms: _453  and  _454
REMARK  195  A    between atoms: _458  and  _460
REMARK  196  A    between atoms: _460  and  _461
REMARK  197  A    between atoms: _460  and  _463
REMARK  198  A    between atoms: _463  and  _464
REMARK  199  A    between atoms: _467  and  _469
REMARK  200  A    between atoms: _469  and  _470
REMARK  201  A    between atoms: _469  and  _472
REMARK  202  A    between atoms: _472  and  _473
REMARK  203  A    between atoms: _475  and  _477
REMARK  204  A    between atoms: _477  and  _478
REMARK  205  A    between atoms: _477  and  _480
REMARK  206  A    between atoms: _480  and  _481
REMARK  207  A    between atoms: _484  and  _486
REMARK  208  A    between atoms: _486  and  _487
REMARK  209  A    between atoms: _486  and  _489
REMARK  210  A    between atoms: _489  and  _490
REMARK  211  A    between atoms: _496  and  _498
REMARK  212  A    between atoms: _498  and  _499
REMARK  213  A    between atoms: _501  and  _503
REMARK  214  A    between atoms: _503  and  _504
REMARK  215  A    between atoms: _503  and  _506
REMARK  216  A    between atoms: _506  and  _507
REMARK                            x       y       z     vdW  Elec       q    Type
REMARK                         _______ _______ _______ _____ _____    ______ ____
ROOT
ATOM      1  O   HOH     1      -1.571   3.726  19.827  0.00  0.00    +0.000 OA
ENDROOT
TORSDOF 0
