REMARK  Name = ../refined-set-2016/1det/1det_pocket.pdb
REMARK  99 active torsions:
REMARK  status: ('A' for Active; 'I' for Inactive)
REMARK    1  A    between atoms: _1  and  _3
REMARK    2  A    between atoms: _3  and  _4
REMARK    3  A    between atoms: _3  and  _6
REMARK    4  A    between atoms: _6  and  _7
REMARK    5  A    between atoms: _12  and  _14
REMARK    6  A    between atoms: _14  and  _15
REMARK    7  A    between atoms: _14  and  _17
REMARK    8  A    between atoms: _17  and  _18
REMARK    9  A    between atoms: _20  and  _22
REMARK   10  A    between atoms: _22  and  _23
REMARK   11  A    between atoms: _22  and  _25
REMARK   12  A    between atoms: _25  and  _26
REMARK   13  A    between atoms: _31  and  _32
REMARK   14  A    between atoms: _34  and  _36
REMARK   15  A    between atoms: _36  and  _37
REMARK   16  A    between atoms: _36  and  _39
REMARK   17  A    between atoms: _39  and  _40
REMARK   18  A    between atoms: _45  and  _47
REMARK   19  A    between atoms: _47  and  _48
REMARK   20  A    between atoms: _47  and  _50
REMARK   21  A    between atoms: _50  and  _51
REMARK   22  A    between atoms: _51  and  _52
REMARK   23  A    between atoms: _52  and  _53
REMARK   24  A    between atoms: _53  and  _54
REMARK   25  A    between atoms: _58  and  _60
REMARK   26  A    between atoms: _60  and  _61
REMARK   27  A    between atoms: _60  and  _63
REMARK   28  A    between atoms: _63  and  _64
REMARK   29  A    between atoms: _69  and  _70
REMARK   30  A    between atoms: _72  and  _74
REMARK   31  A    between atoms: _74  and  _75
REMARK   32  A    between atoms: _74  and  _77
REMARK   33  A    between atoms: _77  and  _78
REMARK   34  A    between atoms: _83  and  _85
REMARK   35  A    between atoms: _85  and  _86
REMARK   36  A    between atoms: _85  and  _88
REMARK   37  A    between atoms: _88  and  _89
REMARK   38  A    between atoms: _94  and  _96
REMARK   39  A    between atoms: _96  and  _97
REMARK   40  A    between atoms: _96  and  _99
REMARK   41  A    between atoms: _99  and  _100
REMARK   42  A    between atoms: _105  and  _106
REMARK   43  A    between atoms: _108  and  _110
REMARK   44  A    between atoms: _110  and  _111
REMARK   45  A    between atoms: _110  and  _113
REMARK   46  A    between atoms: _113  and  _114
REMARK   47  A    between atoms: _114  and  _115
REMARK   48  A    between atoms: _118  and  _120
REMARK   49  A    between atoms: _120  and  _121
REMARK   50  A    between atoms: _123  and  _125
REMARK   51  A    between atoms: _125  and  _126
REMARK   52  A    between atoms: _125  and  _128
REMARK   53  A    between atoms: _128  and  _129
REMARK   54  A    between atoms: _135  and  _137
REMARK   55  A    between atoms: _137  and  _138
REMARK   56  A    between atoms: _137  and  _140
REMARK   57  A    between atoms: _140  and  _141
REMARK   58  A    between atoms: _147  and  _149
REMARK   59  A    between atoms: _149  and  _150
REMARK   60  A    between atoms: _149  and  _152
REMARK   61  A    between atoms: _152  and  _153
REMARK   62  A    between atoms: _158  and  _159
REMARK   63  A    between atoms: _161  and  _163
REMARK   64  A    between atoms: _163  and  _164
REMARK   65  A    between atoms: _163  and  _166
REMARK   66  A    between atoms: _166  and  _167
REMARK   67  A    between atoms: _167  and  _168
REMARK   68  A    between atoms: _168  and  _169
REMARK   69  A    between atoms: _178  and  _180
REMARK   70  A    between atoms: _180  and  _181
REMARK   71  A    between atoms: _180  and  _183
REMARK   72  A    between atoms: _183  and  _184
REMARK   73  A    between atoms: _187  and  _189
REMARK   74  A    between atoms: _189  and  _190
REMARK   75  A    between atoms: _189  and  _192
REMARK   76  A    between atoms: _192  and  _193
REMARK   77  A    between atoms: _198  and  _200
REMARK   78  A    between atoms: _200  and  _201
REMARK   79  A    between atoms: _204  and  _206
REMARK   80  A    between atoms: _206  and  _207
REMARK   81  A    between atoms: _206  and  _209
REMARK   82  A    between atoms: _209  and  _210
REMARK   83  A    between atoms: _212  and  _214
REMARK   84  A    between atoms: _214  and  _215
REMARK   85  A    between atoms: _217  and  _219
REMARK   86  A    between atoms: _219  and  _220
REMARK   87  A    between atoms: _219  and  _222
REMARK   88  A    between atoms: _222  and  _223
REMARK   89  A    between atoms: _228  and  _230
REMARK   90  A    between atoms: _230  and  _231
REMARK   91  A    between atoms: _230  and  _233
REMARK   92  A    between atoms: _233  and  _234
REMARK   93  A    between atoms: _239  and  _241
REMARK   94  A    between atoms: _241  and  _242
REMARK   95  A    between atoms: _241  and  _244
REMARK   96  A    between atoms: _244  and  _245
REMARK   97  A    between atoms: _251  and  _253
REMARK   98  A    between atoms: _253  and  _254
REMARK   99  A    between atoms: _253  and  _256
REMARK                            x       y       z     vdW  Elec       q    Type
REMARK                         _______ _______ _______ _____ _____    ______ ____
ROOT
ATOM      1  CA  SER A   2      14.123 -43.958   9.796  0.00  0.00    +0.178 C 
ENDROOT
BRANCH   1   3
ATOM      2  C   ASN A   1      15.652 -42.584   8.499  0.00  0.00    +0.239 C 
ATOM      3  N   SER A   2      14.585 -42.715   9.236  0.00  0.00    -0.295 N 
ATOM      4  H   SER A   2      14.027 -41.860   9.434  0.00  0.00    +0.150 HD
ATOM      5  O   ASN A   1      16.396 -43.501   8.131  0.00  0.00    -0.274 OA
BRANCH   2   6
ATOM      6  CA  ASN A   1      15.967 -41.226   7.964  0.00  0.00    +0.154 C 
BRANCH   6   7
ATOM      7  N   ASN A   1      15.061 -40.196   8.401  0.00  0.00    -0.238 NA
ATOM      8  H   ASN A   1      15.239 -39.767   9.331  0.00  0.00    +0.142 HD
ENDBRANCH   6   7
BRANCH   6   9
ATOM      9  CB  ASN A   1      17.459 -40.868   8.110  0.00  0.00    +0.111 C 
BRANCH   9  10
ATOM     10  CG  ASN A   1      17.803 -40.063   6.830  0.00  0.00    +0.221 C 
ATOM     11  OD1 ASN A   1      17.839 -38.832   6.876  0.00  0.00    -0.275 OA
ATOM     12  ND2 ASN A   1      17.941 -40.826   5.712  0.00  0.00    -0.329 N 
ATOM     13 HD21 ASN A   1      17.895 -41.863   5.781  0.00  0.00    +0.145 HD
ATOM     14 HD22 ASN A   1      18.093 -40.373   4.788  0.00  0.00    +0.145 HD
ENDBRANCH   9  10
ENDBRANCH   6   9
ENDBRANCH   2   6
ENDBRANCH   1   3
BRANCH   1  15
ATOM     15  C   SER A   2      15.164 -44.817  10.440  0.00  0.00    +0.243 C 
ATOM     16  N   TYR A   3      15.636 -44.398  11.548  0.00  0.00    -0.298 N 
ATOM     17  H   TYR A   3      15.274 -43.478  11.870  0.00  0.00    +0.150 HD
ATOM     18  O   SER A   2      15.472 -45.908   9.924  0.00  0.00    -0.273 OA
BRANCH  16  19
ATOM     19  CA  TYR A   3      16.621 -45.035  12.433  0.00  0.00    +0.141 C 
BRANCH  19  20
ATOM     20  C   TYR A   3      15.807 -45.805  13.488  0.00  0.00    +0.227 C 
ATOM     21  O   TYR A   3      14.754 -45.267  13.916  0.00  0.00    -0.286 OA
ENDBRANCH  19  20
BRANCH  19  22
ATOM     22  CB  TYR A   3      17.549 -43.987  13.064  0.00  0.00    +0.054 C 
BRANCH  22  23
ATOM     23  CG  TYR A   3      18.597 -43.482  12.082  0.00  0.00    -0.020 A 
ATOM     24  CD2 TYR A   3      19.696 -44.274  11.720  0.00  0.00    -0.001 A 
ATOM     25  CE2 TYR A   3      20.654 -43.800  10.842  0.00  0.00    +0.036 A 
ATOM     26  CZ  TYR A   3      20.464 -42.565  10.224  0.00  0.00    +0.134 A 
ATOM     27  CE1 TYR A   3      19.389 -41.775  10.548  0.00  0.00    +0.036 A 
ATOM     28  CD1 TYR A   3      18.461 -42.238  11.487  0.00  0.00    -0.001 A 
BRANCH  26  29
ATOM     29  OH  TYR A   3      21.339 -42.067   9.307  0.00  0.00    -0.506 OA
ATOM     30  HH  TYR A   3      20.863 -41.900   8.455  0.00  0.00    +0.292 HD
ENDBRANCH  26  29
ENDBRANCH  22  23
ENDBRANCH  19  22
ENDBRANCH  16  19
ENDBRANCH   1  15
BRANCH   1  31
ATOM     31  CB  SER A   2      13.455 -44.836   8.741  0.00  0.00    +0.166 C 
BRANCH  31  32
ATOM     32  OG  SER A   2      12.456 -44.012   8.223  0.00  0.00    -0.380 OA
ATOM     33  H   SER A   2      11.959 -44.500   7.520  0.00  0.00    +0.211 HD
ENDBRANCH  31  32
ENDBRANCH   1  31
TORSDOF 13
REMARK  Name = ../refined-set-2016/1det/1det_pocket.pdb
REMARK  99 active torsions:
REMARK  status: ('A' for Active; 'I' for Inactive)
REMARK    1  A    between atoms: _1  and  _3
REMARK    2  A    between atoms: _3  and  _4
REMARK    3  A    between atoms: _3  and  _6
REMARK    4  A    between atoms: _6  and  _7
REMARK    5  A    between atoms: _12  and  _14
REMARK    6  A    between atoms: _14  and  _15
REMARK    7  A    between atoms: _14  and  _17
REMARK    8  A    between atoms: _17  and  _18
REMARK    9  A    between atoms: _20  and  _22
REMARK   10  A    between atoms: _22  and  _23
REMARK   11  A    between atoms: _22  and  _25
REMARK   12  A    between atoms: _25  and  _26
REMARK   13  A    between atoms: _31  and  _32
REMARK   14  A    between atoms: _34  and  _36
REMARK   15  A    between atoms: _36  and  _37
REMARK   16  A    between atoms: _36  and  _39
REMARK   17  A    between atoms: _39  and  _40
REMARK   18  A    between atoms: _45  and  _47
REMARK   19  A    between atoms: _47  and  _48
REMARK   20  A    between atoms: _47  and  _50
REMARK   21  A    between atoms: _50  and  _51
REMARK   22  A    between atoms: _51  and  _52
REMARK   23  A    between atoms: _52  and  _53
REMARK   24  A    between atoms: _53  and  _54
REMARK   25  A    between atoms: _58  and  _60
REMARK   26  A    between atoms: _60  and  _61
REMARK   27  A    between atoms: _60  and  _63
REMARK   28  A    between atoms: _63  and  _64
REMARK   29  A    between atoms: _69  and  _70
REMARK   30  A    between atoms: _72  and  _74
REMARK   31  A    between atoms: _74  and  _75
REMARK   32  A    between atoms: _74  and  _77
REMARK   33  A    between atoms: _77  and  _78
REMARK   34  A    between atoms: _83  and  _85
REMARK   35  A    between atoms: _85  and  _86
REMARK   36  A    between atoms: _85  and  _88
REMARK   37  A    between atoms: _88  and  _89
REMARK   38  A    between atoms: _94  and  _96
REMARK   39  A    between atoms: _96  and  _97
REMARK   40  A    between atoms: _96  and  _99
REMARK   41  A    between atoms: _99  and  _100
REMARK   42  A    between atoms: _105  and  _106
REMARK   43  A    between atoms: _108  and  _110
REMARK   44  A    between atoms: _110  and  _111
REMARK   45  A    between atoms: _110  and  _113
REMARK   46  A    between atoms: _113  and  _114
REMARK   47  A    between atoms: _114  and  _115
REMARK   48  A    between atoms: _118  and  _120
REMARK   49  A    between atoms: _120  and  _121
REMARK   50  A    between atoms: _123  and  _125
REMARK   51  A    between atoms: _125  and  _126
REMARK   52  A    between atoms: _125  and  _128
REMARK   53  A    between atoms: _128  and  _129
REMARK   54  A    between atoms: _135  and  _137
REMARK   55  A    between atoms: _137  and  _138
REMARK   56  A    between atoms: _137  and  _140
REMARK   57  A    between atoms: _140  and  _141
REMARK   58  A    between atoms: _147  and  _149
REMARK   59  A    between atoms: _149  and  _150
REMARK   60  A    between atoms: _149  and  _152
REMARK   61  A    between atoms: _152  and  _153
REMARK   62  A    between atoms: _158  and  _159
REMARK   63  A    between atoms: _161  and  _163
REMARK   64  A    between atoms: _163  and  _164
REMARK   65  A    between atoms: _163  and  _166
REMARK   66  A    between atoms: _166  and  _167
REMARK   67  A    between atoms: _167  and  _168
REMARK   68  A    between atoms: _168  and  _169
REMARK   69  A    between atoms: _178  and  _180
REMARK   70  A    between atoms: _180  and  _181
REMARK   71  A    between atoms: _180  and  _183
REMARK   72  A    between atoms: _183  and  _184
REMARK   73  A    between atoms: _187  and  _189
REMARK   74  A    between atoms: _189  and  _190
REMARK   75  A    between atoms: _189  and  _192
REMARK   76  A    between atoms: _192  and  _193
REMARK   77  A    between atoms: _198  and  _200
REMARK   78  A    between atoms: _200  and  _201
REMARK   79  A    between atoms: _204  and  _206
REMARK   80  A    between atoms: _206  and  _207
REMARK   81  A    between atoms: _206  and  _209
REMARK   82  A    between atoms: _209  and  _210
REMARK   83  A    between atoms: _212  and  _214
REMARK   84  A    between atoms: _214  and  _215
REMARK   85  A    between atoms: _217  and  _219
REMARK   86  A    between atoms: _219  and  _220
REMARK   87  A    between atoms: _219  and  _222
REMARK   88  A    between atoms: _222  and  _223
REMARK   89  A    between atoms: _228  and  _230
REMARK   90  A    between atoms: _230  and  _231
REMARK   91  A    between atoms: _230  and  _233
REMARK   92  A    between atoms: _233  and  _234
REMARK   93  A    between atoms: _239  and  _241
REMARK   94  A    between atoms: _241  and  _242
REMARK   95  A    between atoms: _241  and  _244
REMARK   96  A    between atoms: _244  and  _245
REMARK   97  A    between atoms: _251  and  _253
REMARK   98  A    between atoms: _253  and  _254
REMARK   99  A    between atoms: _253  and  _256
REMARK                            x       y       z     vdW  Elec       q    Type
REMARK                         _______ _______ _______ _____ _____    ______ ____
ROOT
ATOM      1  C   ASN A   4      26.797 -53.763   5.466  0.00  0.00    +0.241 C 
ATOM      2  N   ASN A   5      27.642 -52.911   5.967  0.00  0.00    -0.297 N 
ATOM      3  H   ASN A   5      27.287 -51.993   6.302  0.00  0.00    +0.150 HD
ATOM      4  O   ASN A   4      26.995 -54.935   5.081  0.00  0.00    -0.273 OA
ENDROOT
BRANCH   2   5
ATOM      5  CA  ASN A   5      29.036 -53.187   6.074  0.00  0.00    +0.158 C 
BRANCH   5   6
ATOM      6  C   ASN A   5      29.675 -53.205   4.675  0.00  0.00    +0.241 C 
ATOM      7  O   ASN A   5      30.541 -54.048   4.364  0.00  0.00    -0.273 OA
ATOM      8  N   TYR A   6      29.336 -52.251   3.865  0.00  0.00    -0.297 N 
ATOM      9  H   TYR A   6      28.613 -51.569   4.172  0.00  0.00    +0.150 HD
BRANCH   8  10
ATOM     10  CA  TYR A   6      29.927 -52.095   2.542  0.00  0.00    +0.153 C 
BRANCH  10  11
ATOM     11  C   TYR A   6      31.395 -51.741   2.706  0.00  0.00    +0.241 C 
ATOM     12  N   GLU A   7      31.669 -51.056   3.791  0.00  0.00    -0.297 N 
ATOM     13  H   GLU A   7      30.902 -50.824   4.453  0.00  0.00    +0.150 HD
ATOM     14  O   TYR A   6      32.168 -52.080   1.833  0.00  0.00    -0.273 OA
BRANCH  12  15
ATOM     15  CA  GLU A   7      33.040 -50.609   4.091  0.00  0.00    +0.149 C 
BRANCH  15  16
ATOM     16  C   GLU A   7      33.925 -51.781   4.445  0.00  0.00    +0.241 C 
ATOM     17  N   GLY A   8      33.409 -52.867   4.880  0.00  0.00    -0.295 N 
ATOM     18  H   GLY A   8      32.377 -52.907   5.006  0.00  0.00    +0.150 HD
ATOM     19  O   GLU A   7      35.143 -51.667   4.380  0.00  0.00    -0.273 OA
BRANCH  17  20
ATOM     20  CA  GLY A   8      34.192 -54.053   5.209  0.00  0.00    +0.176 C 
BRANCH  20  21
ATOM     21  C   GLY A   8      34.940 -53.970   6.509  0.00  0.00    +0.243 C 
ATOM     22  N   PHE A   9      34.388 -53.349   7.527  0.00  0.00    -0.298 N 
ATOM     23  H   PHE A   9      33.461 -52.901   7.380  0.00  0.00    +0.150 HD
ATOM     24  O   GLY A   8      36.041 -54.479   6.599  0.00  0.00    -0.273 OA
BRANCH  22  25
ATOM     25  CA  PHE A   9      34.999 -53.248   8.861  0.00  0.00    +0.141 C 
BRANCH  25  26
ATOM     26  C   PHE A   9      34.944 -54.700   9.376  0.00  0.00    +0.227 C 
ATOM     27  O   PHE A   9      34.044 -55.468   9.008  0.00  0.00    -0.286 OA
ENDBRANCH  25  26
BRANCH  25  28
ATOM     28  CB  PHE A   9      34.373 -52.260   9.847  0.00  0.00    +0.054 C 
BRANCH  28  29
ATOM     29  CG  PHE A   9      34.206 -50.866   9.324  0.00  0.00    -0.020 A 
ATOM     30  CD2 PHE A   9      32.938 -50.319   9.125  0.00  0.00    -0.004 A 
ATOM     31  CE2 PHE A   9      32.779 -49.059   8.655  0.00  0.00    -0.000 A 
ATOM     32  CZ  PHE A   9      33.915 -48.276   8.347  0.00  0.00    -0.000 A 
ATOM     33  CE1 PHE A   9      35.152 -48.825   8.500  0.00  0.00    -0.000 A 
ATOM     34  CD1 PHE A   9      35.292 -50.096   9.003  0.00  0.00    -0.004 A 
ENDBRANCH  28  29
ENDBRANCH  25  28
ENDBRANCH  22  25
ENDBRANCH  20  21
ENDBRANCH  17  20
ENDBRANCH  15  16
BRANCH  15  35
ATOM     35  CB  GLU A   7      33.126 -49.562   5.208  0.00  0.00    +0.041 C 
BRANCH  35  36
ATOM     36  CG  GLU A   7      32.680 -48.143   4.927  0.00  0.00    +0.116 C 
BRANCH  36  37
ATOM     37  CD  GLU A   7      31.181 -47.940   4.758  0.00  0.00    +0.365 C 
ATOM     38  OE2 GLU A   7      30.349 -48.790   5.046  0.00  0.00    -0.246 OA
ATOM     39  OE1 GLU A   7      30.871 -46.820   4.324  0.00  0.00    -0.246 OA
ENDBRANCH  36  37
ENDBRANCH  35  36
ENDBRANCH  15  35
ENDBRANCH  12  15
ENDBRANCH  10  11
BRANCH  10  40
ATOM     40  CB  TYR A   6      29.369 -50.960   1.697  0.00  0.00    +0.055 C 
BRANCH  40  41
ATOM     41  CG  TYR A   6      27.979 -51.147   1.180  0.00  0.00    -0.020 A 
ATOM     42  CD2 TYR A   6      27.060 -50.108   1.376  0.00  0.00    -0.001 A 
ATOM     43  CE2 TYR A   6      25.773 -50.267   0.884  0.00  0.00    +0.036 A 
ATOM     44  CZ  TYR A   6      25.405 -51.447   0.231  0.00  0.00    +0.134 A 
ATOM     45  CE1 TYR A   6      26.300 -52.529   0.070  0.00  0.00    +0.036 A 
ATOM     46  CD1 TYR A   6      27.608 -52.354   0.559  0.00  0.00    -0.001 A 
BRANCH  44  47
ATOM     47  OH  TYR A   6      24.139 -51.528  -0.224  0.00  0.00    -0.506 OA
ATOM     48  HH  TYR A   6      23.977 -50.801  -0.877  0.00  0.00    +0.292 HD
ENDBRANCH  44  47
ENDBRANCH  40  41
ENDBRANCH  10  40
ENDBRANCH   8  10
ENDBRANCH   5   6
BRANCH   5  49
ATOM     49  CB  ASN A   5      29.427 -54.412   6.884  0.00  0.00    +0.114 C 
BRANCH  49  50
ATOM     50  CG  ASN A   5      30.871 -54.276   7.357  0.00  0.00    +0.222 C 
ATOM     51  ND2 ASN A   5      31.336 -55.302   7.987  0.00  0.00    -0.329 N 
ATOM     52 HD21 ASN A   5      32.289 -55.269   8.402  0.00  0.00    +0.145 HD
ATOM     53 HD22 ASN A   5      30.758 -56.162   8.079  0.00  0.00    +0.145 HD
ATOM     54  OD1 ASN A   5      31.510 -53.216   7.210  0.00  0.00    -0.275 OA
ENDBRANCH  49  50
ENDBRANCH   5  49
ENDBRANCH   2   5
BRANCH   1  55
ATOM     55  CA  ASN A   4      25.344 -53.330   5.306  0.00  0.00    +0.158 C 
BRANCH  55  58
ATOM     56  C   TYR A   3      24.583 -52.501   7.448  0.00  0.00    +0.241 C 
ATOM     57  O   TYR A   3      24.779 -53.604   8.080  0.00  0.00    -0.273 OA
ATOM     58  N   ASN A   4      24.841 -52.261   6.187  0.00  0.00    -0.297 N 
ATOM     59  H   ASN A   4      24.689 -51.306   5.803  0.00  0.00    +0.150 HD
BRANCH  56  60
ATOM     60  CA  TYR A   3      23.941 -51.323   8.232  0.00  0.00    +0.153 C 
BRANCH  60  62
ATOM     61  C   LYS A   2      21.481 -51.352   8.100  0.00  0.00    +0.241 C 
ATOM     62  N   TYR A   3      22.604 -51.820   8.627  0.00  0.00    -0.297 N 
ATOM     63  H   TYR A   3      22.543 -52.567   9.348  0.00  0.00    +0.150 HD
ATOM     64  O   LYS A   2      21.468 -50.407   7.323  0.00  0.00    -0.273 OA
BRANCH  61  65
ATOM     65  CA  LYS A   2      20.242 -52.099   8.546  0.00  0.00    +0.149 C 
BRANCH  65  68
ATOM     66  C   HIS A   1      19.251 -50.205   9.740  0.00  0.00    +0.239 C 
ATOM     67  O   HIS A   1      20.303 -50.006  10.389  0.00  0.00    -0.274 OA
ATOM     68  N   LYS A   2      19.146 -51.203   8.867  0.00  0.00    -0.297 N 
ATOM     69  H   LYS A   2      18.233 -51.349   8.391  0.00  0.00    +0.150 HD
BRANCH  66  70
ATOM     70  CA  HIS A   1      17.982 -49.393   9.973  0.00  0.00    +0.151 C 
BRANCH  70  71
ATOM     71  N   HIS A   1      18.091 -48.710  11.281  0.00  0.00    -0.238 NA
ATOM     72  H   HIS A   1      19.042 -48.485  11.637  0.00  0.00    +0.142 HD
ENDBRANCH  70  71
BRANCH  70  73
ATOM     73  CB  HIS A   1      17.611 -48.515   8.803  0.00  0.00    +0.074 C 
BRANCH  73  74
ATOM     74  CG  HIS A   1      18.510 -47.369   8.511  0.00  0.00    +0.082 A 
ATOM     75  ND1 HIS A   1      18.104 -46.069   8.611  0.00  0.00    -0.227 NA
ATOM     76  CE1 HIS A   1      19.076 -45.257   8.302  0.00  0.00    +0.199 A 
ATOM     77  NE2 HIS A   1      20.078 -46.013   7.956  0.00  0.00    -0.221 NA
ATOM     78  CD2 HIS A   1      19.789 -47.340   8.106  0.00  0.00    +0.115 A 
ENDBRANCH  73  74
ENDBRANCH  70  73
ENDBRANCH  66  70
ENDBRANCH  65  68
BRANCH  65  79
ATOM     79  CB  LYS A   2      19.803 -53.066   7.400  0.00  0.00    +0.029 C 
BRANCH  79  80
ATOM     80  CG  LYS A   2      20.472 -54.417   7.562  0.00  0.00    +0.000 C 
BRANCH  80  81
ATOM     81  CD  LYS A   2      20.021 -55.595   6.756  0.00  0.00    -0.024 C 
BRANCH  81  82
ATOM     82  CE  LYS A   2      21.068 -56.695   6.570  0.00  0.00    -0.086 C 
BRANCH  82  83
ATOM     83  NZ  LYS A   2      20.526 -58.129   6.505  0.00  0.00    +0.380 N 
ATOM     84  HZ1 LYS A   2      20.026 -58.350   7.390  0.00  0.00    -0.089 HD
ATOM     85  HZ2 LYS A   2      21.317 -58.792   6.378  0.00  0.00    -0.089 HD
ATOM     86  HZ3 LYS A   2      19.869 -58.214   5.703  0.00  0.00    -0.089 HD
ENDBRANCH  82  83
ENDBRANCH  81  82
ENDBRANCH  80  81
ENDBRANCH  79  80
ENDBRANCH  65  79
ENDBRANCH  61  65
ENDBRANCH  60  62
BRANCH  60  87
ATOM     87  CB  TYR A   3      24.804 -50.931   9.409  0.00  0.00    +0.055 C 
BRANCH  87  88
ATOM     88  CG  TYR A   3      26.118 -50.367   8.852  0.00  0.00    -0.020 A 
ATOM     89  CD2 TYR A   3      27.215 -51.230   8.930  0.00  0.00    -0.001 A 
ATOM     90  CE2 TYR A   3      28.473 -50.821   8.462  0.00  0.00    +0.036 A 
ATOM     91  CZ  TYR A   3      28.626 -49.542   7.914  0.00  0.00    +0.134 A 
ATOM     92  CE1 TYR A   3      27.526 -48.689   7.825  0.00  0.00    +0.036 A 
ATOM     93  CD1 TYR A   3      26.255 -49.130   8.258  0.00  0.00    -0.001 A 
BRANCH  91  94
ATOM     94  OH  TYR A   3      29.906 -49.274   7.487  0.00  0.00    -0.506 OA
ATOM     95  HH  TYR A   3      30.163 -49.927   6.789  0.00  0.00    +0.292 HD
ENDBRANCH  91  94
ENDBRANCH  87  88
ENDBRANCH  60  87
ENDBRANCH  56  60
ENDBRANCH  55  58
BRANCH  55  96
ATOM     96  CB  ASN A   4      25.030 -53.134   3.846  0.00  0.00    +0.114 C 
BRANCH  96  97
ATOM     97  CG  ASN A   4      23.529 -53.112   3.543  0.00  0.00    +0.222 C 
ATOM     98  OD1 ASN A   4      22.694 -53.816   4.150  0.00  0.00    -0.275 OA
ATOM     99  ND2 ASN A   4      23.185 -52.206   2.641  0.00  0.00    -0.329 N 
ATOM    100 HD21 ASN A   4      22.182 -52.056   2.411  0.00  0.00    +0.145 HD
ATOM    101 HD22 ASN A   4      23.918 -51.644   2.162  0.00  0.00    +0.145 HD
ENDBRANCH  96  97
ENDBRANCH  55  96
ENDBRANCH   1  55
TORSDOF 40
REMARK  Name = ../refined-set-2016/1det/1det_pocket.pdb
REMARK  99 active torsions:
REMARK  status: ('A' for Active; 'I' for Inactive)
REMARK    1  A    between atoms: _1  and  _3
REMARK    2  A    between atoms: _3  and  _4
REMARK    3  A    between atoms: _3  and  _6
REMARK    4  A    between atoms: _6  and  _7
REMARK    5  A    between atoms: _12  and  _14
REMARK    6  A    between atoms: _14  and  _15
REMARK    7  A    between atoms: _14  and  _17
REMARK    8  A    between atoms: _17  and  _18
REMARK    9  A    between atoms: _20  and  _22
REMARK   10  A    between atoms: _22  and  _23
REMARK   11  A    between atoms: _22  and  _25
REMARK   12  A    between atoms: _25  and  _26
REMARK   13  A    between atoms: _31  and  _32
REMARK   14  A    between atoms: _34  and  _36
REMARK   15  A    between atoms: _36  and  _37
REMARK   16  A    between atoms: _36  and  _39
REMARK   17  A    between atoms: _39  and  _40
REMARK   18  A    between atoms: _45  and  _47
REMARK   19  A    between atoms: _47  and  _48
REMARK   20  A    between atoms: _47  and  _50
REMARK   21  A    between atoms: _50  and  _51
REMARK   22  A    between atoms: _51  and  _52
REMARK   23  A    between atoms: _52  and  _53
REMARK   24  A    between atoms: _53  and  _54
REMARK   25  A    between atoms: _58  and  _60
REMARK   26  A    between atoms: _60  and  _61
REMARK   27  A    between atoms: _60  and  _63
REMARK   28  A    between atoms: _63  and  _64
REMARK   29  A    between atoms: _69  and  _70
REMARK   30  A    between atoms: _72  and  _74
REMARK   31  A    between atoms: _74  and  _75
REMARK   32  A    between atoms: _74  and  _77
REMARK   33  A    between atoms: _77  and  _78
REMARK   34  A    between atoms: _83  and  _85
REMARK   35  A    between atoms: _85  and  _86
REMARK   36  A    between atoms: _85  and  _88
REMARK   37  A    between atoms: _88  and  _89
REMARK   38  A    between atoms: _94  and  _96
REMARK   39  A    between atoms: _96  and  _97
REMARK   40  A    between atoms: _96  and  _99
REMARK   41  A    between atoms: _99  and  _100
REMARK   42  A    between atoms: _105  and  _106
REMARK   43  A    between atoms: _108  and  _110
REMARK   44  A    between atoms: _110  and  _111
REMARK   45  A    between atoms: _110  and  _113
REMARK   46  A    between atoms: _113  and  _114
REMARK   47  A    between atoms: _114  and  _115
REMARK   48  A    between atoms: _118  and  _120
REMARK   49  A    between atoms: _120  and  _121
REMARK   50  A    between atoms: _123  and  _125
REMARK   51  A    between atoms: _125  and  _126
REMARK   52  A    between atoms: _125  and  _128
REMARK   53  A    between atoms: _128  and  _129
REMARK   54  A    between atoms: _135  and  _137
REMARK   55  A    between atoms: _137  and  _138
REMARK   56  A    between atoms: _137  and  _140
REMARK   57  A    between atoms: _140  and  _141
REMARK   58  A    between atoms: _147  and  _149
REMARK   59  A    between atoms: _149  and  _150
REMARK   60  A    between atoms: _149  and  _152
REMARK   61  A    between atoms: _152  and  _153
REMARK   62  A    between atoms: _158  and  _159
REMARK   63  A    between atoms: _161  and  _163
REMARK   64  A    between atoms: _163  and  _164
REMARK   65  A    between atoms: _163  and  _166
REMARK   66  A    between atoms: _166  and  _167
REMARK   67  A    between atoms: _167  and  _168
REMARK   68  A    between atoms: _168  and  _169
REMARK   69  A    between atoms: _178  and  _180
REMARK   70  A    between atoms: _180  and  _181
REMARK   71  A    between atoms: _180  and  _183
REMARK   72  A    between atoms: _183  and  _184
REMARK   73  A    between atoms: _187  and  _189
REMARK   74  A    between atoms: _189  and  _190
REMARK   75  A    between atoms: _189  and  _192
REMARK   76  A    between atoms: _192  and  _193
REMARK   77  A    between atoms: _198  and  _200
REMARK   78  A    between atoms: _200  and  _201
REMARK   79  A    between atoms: _204  and  _206
REMARK   80  A    between atoms: _206  and  _207
REMARK   81  A    between atoms: _206  and  _209
REMARK   82  A    between atoms: _209  and  _210
REMARK   83  A    between atoms: _212  and  _214
REMARK   84  A    between atoms: _214  and  _215
REMARK   85  A    between atoms: _217  and  _219
REMARK   86  A    between atoms: _219  and  _220
REMARK   87  A    between atoms: _219  and  _222
REMARK   88  A    between atoms: _222  and  _223
REMARK   89  A    between atoms: _228  and  _230
REMARK   90  A    between atoms: _230  and  _231
REMARK   91  A    between atoms: _230  and  _233
REMARK   92  A    between atoms: _233  and  _234
REMARK   93  A    between atoms: _239  and  _241
REMARK   94  A    between atoms: _241  and  _242
REMARK   95  A    between atoms: _241  and  _244
REMARK   96  A    between atoms: _244  and  _245
REMARK   97  A    between atoms: _251  and  _253
REMARK   98  A    between atoms: _253  and  _254
REMARK   99  A    between atoms: _253  and  _256
REMARK                            x       y       z     vdW  Elec       q    Type
REMARK                         _______ _______ _______ _____ _____    ______ ____
ROOT
ATOM      1  CB  PHE A   1      32.081 -55.775  13.423  0.00  0.00    +0.051 C 
ENDROOT
BRANCH   1   2
ATOM      2  CG  PHE A   1      31.764 -54.455  12.841  0.00  0.00    -0.020 A 
ATOM      3  CD2 PHE A   1      32.443 -53.306  13.221  0.00  0.00    -0.004 A 
ATOM      4  CE2 PHE A   1      32.138 -52.065  12.691  0.00  0.00    -0.000 A 
ATOM      5  CZ  PHE A   1      31.108 -51.964  11.733  0.00  0.00    -0.000 A 
ATOM      6  CE1 PHE A   1      30.412 -53.102  11.316  0.00  0.00    -0.000 A 
ATOM      7  CD1 PHE A   1      30.737 -54.343  11.883  0.00  0.00    -0.004 A 
ENDBRANCH   1   2
BRANCH   1   8
ATOM      8  CA  PHE A   1      33.496 -56.285  13.572  0.00  0.00    +0.137 C 
BRANCH   8   9
ATOM      9  N   PHE A   1      34.239 -56.382  12.280  0.00  0.00    -0.239 NA
ATOM     10  H   PHE A   1      33.747 -56.636  11.400  0.00  0.00    +0.142 HD
ENDBRANCH   8   9
BRANCH   8  11
ATOM     11  C   PHE A   1      33.613 -57.681  14.160  0.00  0.00    +0.224 C 
ATOM     12  O   PHE A   1      33.648 -58.660  13.373  0.00  0.00    -0.287 OA
ENDBRANCH   8  11
ENDBRANCH   1   8
TORSDOF 4
REMARK  Name = ../refined-set-2016/1det/1det_pocket.pdb
REMARK  99 active torsions:
REMARK  status: ('A' for Active; 'I' for Inactive)
REMARK    1  A    between atoms: _1  and  _3
REMARK    2  A    between atoms: _3  and  _4
REMARK    3  A    between atoms: _3  and  _6
REMARK    4  A    between atoms: _6  and  _7
REMARK    5  A    between atoms: _12  and  _14
REMARK    6  A    between atoms: _14  and  _15
REMARK    7  A    between atoms: _14  and  _17
REMARK    8  A    between atoms: _17  and  _18
REMARK    9  A    between atoms: _20  and  _22
REMARK   10  A    between atoms: _22  and  _23
REMARK   11  A    between atoms: _22  and  _25
REMARK   12  A    between atoms: _25  and  _26
REMARK   13  A    between atoms: _31  and  _32
REMARK   14  A    between atoms: _34  and  _36
REMARK   15  A    between atoms: _36  and  _37
REMARK   16  A    between atoms: _36  and  _39
REMARK   17  A    between atoms: _39  and  _40
REMARK   18  A    between atoms: _45  and  _47
REMARK   19  A    between atoms: _47  and  _48
REMARK   20  A    between atoms: _47  and  _50
REMARK   21  A    between atoms: _50  and  _51
REMARK   22  A    between atoms: _51  and  _52
REMARK   23  A    between atoms: _52  and  _53
REMARK   24  A    between atoms: _53  and  _54
REMARK   25  A    between atoms: _58  and  _60
REMARK   26  A    between atoms: _60  and  _61
REMARK   27  A    between atoms: _60  and  _63
REMARK   28  A    between atoms: _63  and  _64
REMARK   29  A    between atoms: _69  and  _70
REMARK   30  A    between atoms: _72  and  _74
REMARK   31  A    between atoms: _74  and  _75
REMARK   32  A    between atoms: _74  and  _77
REMARK   33  A    between atoms: _77  and  _78
REMARK   34  A    between atoms: _83  and  _85
REMARK   35  A    between atoms: _85  and  _86
REMARK   36  A    between atoms: _85  and  _88
REMARK   37  A    between atoms: _88  and  _89
REMARK   38  A    between atoms: _94  and  _96
REMARK   39  A    between atoms: _96  and  _97
REMARK   40  A    between atoms: _96  and  _99
REMARK   41  A    between atoms: _99  and  _100
REMARK   42  A    between atoms: _105  and  _106
REMARK   43  A    between atoms: _108  and  _110
REMARK   44  A    between atoms: _110  and  _111
REMARK   45  A    between atoms: _110  and  _113
REMARK   46  A    between atoms: _113  and  _114
REMARK   47  A    between atoms: _114  and  _115
REMARK   48  A    between atoms: _118  and  _120
REMARK   49  A    between atoms: _120  and  _121
REMARK   50  A    between atoms: _123  and  _125
REMARK   51  A    between atoms: _125  and  _126
REMARK   52  A    between atoms: _125  and  _128
REMARK   53  A    between atoms: _128  and  _129
REMARK   54  A    between atoms: _135  and  _137
REMARK   55  A    between atoms: _137  and  _138
REMARK   56  A    between atoms: _137  and  _140
REMARK   57  A    between atoms: _140  and  _141
REMARK   58  A    between atoms: _147  and  _149
REMARK   59  A    between atoms: _149  and  _150
REMARK   60  A    between atoms: _149  and  _152
REMARK   61  A    between atoms: _152  and  _153
REMARK   62  A    between atoms: _158  and  _159
REMARK   63  A    between atoms: _161  and  _163
REMARK   64  A    between atoms: _163  and  _164
REMARK   65  A    between atoms: _163  and  _166
REMARK   66  A    between atoms: _166  and  _167
REMARK   67  A    between atoms: _167  and  _168
REMARK   68  A    between atoms: _168  and  _169
REMARK   69  A    between atoms: _178  and  _180
REMARK   70  A    between atoms: _180  and  _181
REMARK   71  A    between atoms: _180  and  _183
REMARK   72  A    between atoms: _183  and  _184
REMARK   73  A    between atoms: _187  and  _189
REMARK   74  A    between atoms: _189  and  _190
REMARK   75  A    between atoms: _189  and  _192
REMARK   76  A    between atoms: _192  and  _193
REMARK   77  A    between atoms: _198  and  _200
REMARK   78  A    between atoms: _200  and  _201
REMARK   79  A    between atoms: _204  and  _206
REMARK   80  A    between atoms: _206  and  _207
REMARK   81  A    between atoms: _206  and  _209
REMARK   82  A    between atoms: _209  and  _210
REMARK   83  A    between atoms: _212  and  _214
REMARK   84  A    between atoms: _214  and  _215
REMARK   85  A    between atoms: _217  and  _219
REMARK   86  A    between atoms: _219  and  _220
REMARK   87  A    between atoms: _219  and  _222
REMARK   88  A    between atoms: _222  and  _223
REMARK   89  A    between atoms: _228  and  _230
REMARK   90  A    between atoms: _230  and  _231
REMARK   91  A    between atoms: _230  and  _233
REMARK   92  A    between atoms: _233  and  _234
REMARK   93  A    between atoms: _239  and  _241
REMARK   94  A    between atoms: _241  and  _242
REMARK   95  A    between atoms: _241  and  _244
REMARK   96  A    between atoms: _244  and  _245
REMARK   97  A    between atoms: _251  and  _253
REMARK   98  A    between atoms: _253  and  _254
REMARK   99  A    between atoms: _253  and  _256
REMARK                            x       y       z     vdW  Elec       q    Type
REMARK                         _______ _______ _______ _____ _____    ______ ____
ROOT
ATOM      1  CG  TYR A   1      26.471 -55.458  11.514  0.00  0.00    -0.020 A 
ATOM      2  CD2 TYR A   1      26.850 -55.962  12.749  0.00  0.00    -0.001 A 
ATOM      3  CE2 TYR A   1      27.920 -56.878  12.878  0.00  0.00    +0.036 A 
ATOM      4  CZ  TYR A   1      28.597 -57.238  11.726  0.00  0.00    +0.134 A 
ATOM      5  CE1 TYR A   1      28.224 -56.781  10.494  0.00  0.00    +0.036 A 
ATOM      6  CD1 TYR A   1      27.156 -55.890  10.387  0.00  0.00    -0.001 A 
ENDROOT
BRANCH   4   7
ATOM      7  OH  TYR A   1      29.608 -58.128  11.768  0.00  0.00    -0.506 OA
ATOM      8  HH  TYR A   1      29.784 -58.382  12.709  0.00  0.00    +0.292 HD
ENDBRANCH   4   7
BRANCH   1   9
ATOM      9  CB  TYR A   1      25.326 -54.476  11.361  0.00  0.00    +0.051 C 
BRANCH   9  10
ATOM     10  CA  TYR A   1      23.952 -55.021  11.774  0.00  0.00    +0.137 C 
BRANCH  10  11
ATOM     11  N   TYR A   1      23.560 -56.211  11.002  0.00  0.00    -0.239 NA
ATOM     12  H   TYR A   1      23.572 -56.192   9.962  0.00  0.00    +0.142 HD
ENDBRANCH  10  11
BRANCH  10  13
ATOM     13  C   TYR A   1      22.868 -53.954  11.486  0.00  0.00    +0.224 C 
ATOM     14  O   TYR A   1      22.311 -53.963  10.416  0.00  0.00    -0.287 OA
ENDBRANCH  10  13
ENDBRANCH   9  10
ENDBRANCH   1   9
TORSDOF 5
REMARK  Name = ../refined-set-2016/1det/1det_pocket.pdb
REMARK  99 active torsions:
REMARK  status: ('A' for Active; 'I' for Inactive)
REMARK    1  A    between atoms: _1  and  _3
REMARK    2  A    between atoms: _3  and  _4
REMARK    3  A    between atoms: _3  and  _6
REMARK    4  A    between atoms: _6  and  _7
REMARK    5  A    between atoms: _12  and  _14
REMARK    6  A    between atoms: _14  and  _15
REMARK    7  A    between atoms: _14  and  _17
REMARK    8  A    between atoms: _17  and  _18
REMARK    9  A    between atoms: _20  and  _22
REMARK   10  A    between atoms: _22  and  _23
REMARK   11  A    between atoms: _22  and  _25
REMARK   12  A    between atoms: _25  and  _26
REMARK   13  A    between atoms: _31  and  _32
REMARK   14  A    between atoms: _34  and  _36
REMARK   15  A    between atoms: _36  and  _37
REMARK   16  A    between atoms: _36  and  _39
REMARK   17  A    between atoms: _39  and  _40
REMARK   18  A    between atoms: _45  and  _47
REMARK   19  A    between atoms: _47  and  _48
REMARK   20  A    between atoms: _47  and  _50
REMARK   21  A    between atoms: _50  and  _51
REMARK   22  A    between atoms: _51  and  _52
REMARK   23  A    between atoms: _52  and  _53
REMARK   24  A    between atoms: _53  and  _54
REMARK   25  A    between atoms: _58  and  _60
REMARK   26  A    between atoms: _60  and  _61
REMARK   27  A    between atoms: _60  and  _63
REMARK   28  A    between atoms: _63  and  _64
REMARK   29  A    between atoms: _69  and  _70
REMARK   30  A    between atoms: _72  and  _74
REMARK   31  A    between atoms: _74  and  _75
REMARK   32  A    between atoms: _74  and  _77
REMARK   33  A    between atoms: _77  and  _78
REMARK   34  A    between atoms: _83  and  _85
REMARK   35  A    between atoms: _85  and  _86
REMARK   36  A    between atoms: _85  and  _88
REMARK   37  A    between atoms: _88  and  _89
REMARK   38  A    between atoms: _94  and  _96
REMARK   39  A    between atoms: _96  and  _97
REMARK   40  A    between atoms: _96  and  _99
REMARK   41  A    between atoms: _99  and  _100
REMARK   42  A    between atoms: _105  and  _106
REMARK   43  A    between atoms: _108  and  _110
REMARK   44  A    between atoms: _110  and  _111
REMARK   45  A    between atoms: _110  and  _113
REMARK   46  A    between atoms: _113  and  _114
REMARK   47  A    between atoms: _114  and  _115
REMARK   48  A    between atoms: _118  and  _120
REMARK   49  A    between atoms: _120  and  _121
REMARK   50  A    between atoms: _123  and  _125
REMARK   51  A    between atoms: _125  and  _126
REMARK   52  A    between atoms: _125  and  _128
REMARK   53  A    between atoms: _128  and  _129
REMARK   54  A    between atoms: _135  and  _137
REMARK   55  A    between atoms: _137  and  _138
REMARK   56  A    between atoms: _137  and  _140
REMARK   57  A    between atoms: _140  and  _141
REMARK   58  A    between atoms: _147  and  _149
REMARK   59  A    between atoms: _149  and  _150
REMARK   60  A    between atoms: _149  and  _152
REMARK   61  A    between atoms: _152  and  _153
REMARK   62  A    between atoms: _158  and  _159
REMARK   63  A    between atoms: _161  and  _163
REMARK   64  A    between atoms: _163  and  _164
REMARK   65  A    between atoms: _163  and  _166
REMARK   66  A    between atoms: _166  and  _167
REMARK   67  A    between atoms: _167  and  _168
REMARK   68  A    between atoms: _168  and  _169
REMARK   69  A    between atoms: _178  and  _180
REMARK   70  A    between atoms: _180  and  _181
REMARK   71  A    between atoms: _180  and  _183
REMARK   72  A    between atoms: _183  and  _184
REMARK   73  A    between atoms: _187  and  _189
REMARK   74  A    between atoms: _189  and  _190
REMARK   75  A    between atoms: _189  and  _192
REMARK   76  A    between atoms: _192  and  _193
REMARK   77  A    between atoms: _198  and  _200
REMARK   78  A    between atoms: _200  and  _201
REMARK   79  A    between atoms: _204  and  _206
REMARK   80  A    between atoms: _206  and  _207
REMARK   81  A    between atoms: _206  and  _209
REMARK   82  A    between atoms: _209  and  _210
REMARK   83  A    between atoms: _212  and  _214
REMARK   84  A    between atoms: _214  and  _215
REMARK   85  A    between atoms: _217  and  _219
REMARK   86  A    between atoms: _219  and  _220
REMARK   87  A    between atoms: _219  and  _222
REMARK   88  A    between atoms: _222  and  _223
REMARK   89  A    between atoms: _228  and  _230
REMARK   90  A    between atoms: _230  and  _231
REMARK   91  A    between atoms: _230  and  _233
REMARK   92  A    between atoms: _233  and  _234
REMARK   93  A    between atoms: _239  and  _241
REMARK   94  A    between atoms: _241  and  _242
REMARK   95  A    between atoms: _241  and  _244
REMARK   96  A    between atoms: _244  and  _245
REMARK   97  A    between atoms: _251  and  _253
REMARK   98  A    between atoms: _253  and  _254
REMARK   99  A    between atoms: _253  and  _256
REMARK                            x       y       z     vdW  Elec       q    Type
REMARK                         _______ _______ _______ _____ _____    ______ ____
ROOT
ATOM      1  NE  ARG A   1      24.182 -42.512  11.083  0.00  0.00    -0.265 N 
ATOM      2  CZ  ARG A   1      24.337 -41.198  11.080  0.00  0.00    +0.342 C 
ATOM      3  NH2 ARG A   1      24.700 -40.584  12.203  0.00  0.00    -0.292 N 
ATOM      4 HH21 ARG A   1      24.859 -41.136  13.070  0.00  0.00    +0.255 HD
ATOM      5 HH22 ARG A   1      24.825 -39.552  12.214  0.00  0.00    +0.255 HD
ATOM      6  NH1 ARG A   1      24.137 -40.557   9.947  0.00  0.00    -0.292 N 
ATOM      7 HH11 ARG A   1      24.250 -39.524   9.907  0.00  0.00    +0.255 HD
ATOM      8 HH12 ARG A   1      23.866 -41.084   9.092  0.00  0.00    +0.255 HD
ATOM      9  HE  ARG A   1      23.817 -42.993  10.236  0.00  0.00    +0.259 HD
ENDROOT
BRANCH   1  10
ATOM     10  CD  ARG A   1      24.521 -43.285  12.268  0.00  0.00    +0.174 C 
BRANCH  10  11
ATOM     11  CG  ARG A   1      25.916 -43.798  12.127  0.00  0.00    +0.045 C 
BRANCH  11  12
ATOM     12  CB  ARG A   1      26.299 -44.675  13.295  0.00  0.00    +0.029 C 
BRANCH  12  13
ATOM     13  CA  ARG A   1      26.613 -43.949  14.659  0.00  0.00    +0.133 C 
BRANCH  13  14
ATOM     14  N   ARG A   1      27.601 -42.895  14.469  0.00  0.00    -0.239 NA
ATOM     15  H   ARG A   1      28.616 -43.102  14.374  0.00  0.00    +0.142 HD
ENDBRANCH  13  14
BRANCH  13  16
ATOM     16  C   ARG A   1      27.141 -45.046  15.552  0.00  0.00    +0.224 C 
ATOM     17  O   ARG A   1      28.352 -45.306  15.486  0.00  0.00    -0.287 OA
ENDBRANCH  13  16
ENDBRANCH  12  13
ENDBRANCH  11  12
ENDBRANCH  10  11
ENDBRANCH   1  10
TORSDOF 6
REMARK  Name = ../refined-set-2016/1det/1det_pocket.pdb
REMARK  99 active torsions:
REMARK  status: ('A' for Active; 'I' for Inactive)
REMARK    1  A    between atoms: _1  and  _3
REMARK    2  A    between atoms: _3  and  _4
REMARK    3  A    between atoms: _3  and  _6
REMARK    4  A    between atoms: _6  and  _7
REMARK    5  A    between atoms: _12  and  _14
REMARK    6  A    between atoms: _14  and  _15
REMARK    7  A    between atoms: _14  and  _17
REMARK    8  A    between atoms: _17  and  _18
REMARK    9  A    between atoms: _20  and  _22
REMARK   10  A    between atoms: _22  and  _23
REMARK   11  A    between atoms: _22  and  _25
REMARK   12  A    between atoms: _25  and  _26
REMARK   13  A    between atoms: _31  and  _32
REMARK   14  A    between atoms: _34  and  _36
REMARK   15  A    between atoms: _36  and  _37
REMARK   16  A    between atoms: _36  and  _39
REMARK   17  A    between atoms: _39  and  _40
REMARK   18  A    between atoms: _45  and  _47
REMARK   19  A    between atoms: _47  and  _48
REMARK   20  A    between atoms: _47  and  _50
REMARK   21  A    between atoms: _50  and  _51
REMARK   22  A    between atoms: _51  and  _52
REMARK   23  A    between atoms: _52  and  _53
REMARK   24  A    between atoms: _53  and  _54
REMARK   25  A    between atoms: _58  and  _60
REMARK   26  A    between atoms: _60  and  _61
REMARK   27  A    between atoms: _60  and  _63
REMARK   28  A    between atoms: _63  and  _64
REMARK   29  A    between atoms: _69  and  _70
REMARK   30  A    between atoms: _72  and  _74
REMARK   31  A    between atoms: _74  and  _75
REMARK   32  A    between atoms: _74  and  _77
REMARK   33  A    between atoms: _77  and  _78
REMARK   34  A    between atoms: _83  and  _85
REMARK   35  A    between atoms: _85  and  _86
REMARK   36  A    between atoms: _85  and  _88
REMARK   37  A    between atoms: _88  and  _89
REMARK   38  A    between atoms: _94  and  _96
REMARK   39  A    between atoms: _96  and  _97
REMARK   40  A    between atoms: _96  and  _99
REMARK   41  A    between atoms: _99  and  _100
REMARK   42  A    between atoms: _105  and  _106
REMARK   43  A    between atoms: _108  and  _110
REMARK   44  A    between atoms: _110  and  _111
REMARK   45  A    between atoms: _110  and  _113
REMARK   46  A    between atoms: _113  and  _114
REMARK   47  A    between atoms: _114  and  _115
REMARK   48  A    between atoms: _118  and  _120
REMARK   49  A    between atoms: _120  and  _121
REMARK   50  A    between atoms: _123  and  _125
REMARK   51  A    between atoms: _125  and  _126
REMARK   52  A    between atoms: _125  and  _128
REMARK   53  A    between atoms: _128  and  _129
REMARK   54  A    between atoms: _135  and  _137
REMARK   55  A    between atoms: _137  and  _138
REMARK   56  A    between atoms: _137  and  _140
REMARK   57  A    between atoms: _140  and  _141
REMARK   58  A    between atoms: _147  and  _149
REMARK   59  A    between atoms: _149  and  _150
REMARK   60  A    between atoms: _149  and  _152
REMARK   61  A    between atoms: _152  and  _153
REMARK   62  A    between atoms: _158  and  _159
REMARK   63  A    between atoms: _161  and  _163
REMARK   64  A    between atoms: _163  and  _164
REMARK   65  A    between atoms: _163  and  _166
REMARK   66  A    between atoms: _166  and  _167
REMARK   67  A    between atoms: _167  and  _168
REMARK   68  A    between atoms: _168  and  _169
REMARK   69  A    between atoms: _178  and  _180
REMARK   70  A    between atoms: _180  and  _181
REMARK   71  A    between atoms: _180  and  _183
REMARK   72  A    between atoms: _183  and  _184
REMARK   73  A    between atoms: _187  and  _189
REMARK   74  A    between atoms: _189  and  _190
REMARK   75  A    between atoms: _189  and  _192
REMARK   76  A    between atoms: _192  and  _193
REMARK   77  A    between atoms: _198  and  _200
REMARK   78  A    between atoms: _200  and  _201
REMARK   79  A    between atoms: _204  and  _206
REMARK   80  A    between atoms: _206  and  _207
REMARK   81  A    between atoms: _206  and  _209
REMARK   82  A    between atoms: _209  and  _210
REMARK   83  A    between atoms: _212  and  _214
REMARK   84  A    between atoms: _214  and  _215
REMARK   85  A    between atoms: _217  and  _219
REMARK   86  A    between atoms: _219  and  _220
REMARK   87  A    between atoms: _219  and  _222
REMARK   88  A    between atoms: _222  and  _223
REMARK   89  A    between atoms: _228  and  _230
REMARK   90  A    between atoms: _230  and  _231
REMARK   91  A    between atoms: _230  and  _233
REMARK   92  A    between atoms: _233  and  _234
REMARK   93  A    between atoms: _239  and  _241
REMARK   94  A    between atoms: _241  and  _242
REMARK   95  A    between atoms: _241  and  _244
REMARK   96  A    between atoms: _244  and  _245
REMARK   97  A    between atoms: _251  and  _253
REMARK   98  A    between atoms: _253  and  _254
REMARK   99  A    between atoms: _253  and  _256
REMARK                            x       y       z     vdW  Elec       q    Type
REMARK                         _______ _______ _______ _____ _____    ______ ____
ROOT
ATOM      1  CA  ILE A   1      31.560 -45.298  13.072  0.00  0.00    +0.133 C 
ENDROOT
BRANCH   1   2
ATOM      2  N   ILE A   1      31.012 -45.759  14.341  0.00  0.00    -0.239 NA
ATOM      3  H   ILE A   1      29.994 -45.677  14.536  0.00  0.00    +0.142 HD
ENDBRANCH   1   2
BRANCH   1   4
ATOM      4  C   ILE A   1      31.102 -43.867  12.900  0.00  0.00    +0.224 C 
ATOM      5  O   ILE A   1      30.202 -43.436  13.632  0.00  0.00    -0.287 OA
ENDBRANCH   1   4
BRANCH   1   6
ATOM      6  CB  ILE A   1      31.072 -46.373  12.021  0.00  0.00    +0.023 C 
ATOM      7  CG2 ILE A   1      31.588 -47.817  12.346  0.00  0.00    +0.002 C 
BRANCH   6   8
ATOM      8  CG1 ILE A   1      29.542 -46.327  11.896  0.00  0.00    +0.002 C 
ATOM      9  CD1 ILE A   1      28.896 -47.019  10.672  0.00  0.00    +0.000 C 
ENDBRANCH   6   8
ENDBRANCH   1   6
TORSDOF 4
REMARK  Name = ../refined-set-2016/1det/1det_pocket.pdb
REMARK  99 active torsions:
REMARK  status: ('A' for Active; 'I' for Inactive)
REMARK    1  A    between atoms: _1  and  _3
REMARK    2  A    between atoms: _3  and  _4
REMARK    3  A    between atoms: _3  and  _6
REMARK    4  A    between atoms: _6  and  _7
REMARK    5  A    between atoms: _12  and  _14
REMARK    6  A    between atoms: _14  and  _15
REMARK    7  A    between atoms: _14  and  _17
REMARK    8  A    between atoms: _17  and  _18
REMARK    9  A    between atoms: _20  and  _22
REMARK   10  A    between atoms: _22  and  _23
REMARK   11  A    between atoms: _22  and  _25
REMARK   12  A    between atoms: _25  and  _26
REMARK   13  A    between atoms: _31  and  _32
REMARK   14  A    between atoms: _34  and  _36
REMARK   15  A    between atoms: _36  and  _37
REMARK   16  A    between atoms: _36  and  _39
REMARK   17  A    between atoms: _39  and  _40
REMARK   18  A    between atoms: _45  and  _47
REMARK   19  A    between atoms: _47  and  _48
REMARK   20  A    between atoms: _47  and  _50
REMARK   21  A    between atoms: _50  and  _51
REMARK   22  A    between atoms: _51  and  _52
REMARK   23  A    between atoms: _52  and  _53
REMARK   24  A    between atoms: _53  and  _54
REMARK   25  A    between atoms: _58  and  _60
REMARK   26  A    between atoms: _60  and  _61
REMARK   27  A    between atoms: _60  and  _63
REMARK   28  A    between atoms: _63  and  _64
REMARK   29  A    between atoms: _69  and  _70
REMARK   30  A    between atoms: _72  and  _74
REMARK   31  A    between atoms: _74  and  _75
REMARK   32  A    between atoms: _74  and  _77
REMARK   33  A    between atoms: _77  and  _78
REMARK   34  A    between atoms: _83  and  _85
REMARK   35  A    between atoms: _85  and  _86
REMARK   36  A    between atoms: _85  and  _88
REMARK   37  A    between atoms: _88  and  _89
REMARK   38  A    between atoms: _94  and  _96
REMARK   39  A    between atoms: _96  and  _97
REMARK   40  A    between atoms: _96  and  _99
REMARK   41  A    between atoms: _99  and  _100
REMARK   42  A    between atoms: _105  and  _106
REMARK   43  A    between atoms: _108  and  _110
REMARK   44  A    between atoms: _110  and  _111
REMARK   45  A    between atoms: _110  and  _113
REMARK   46  A    between atoms: _113  and  _114
REMARK   47  A    between atoms: _114  and  _115
REMARK   48  A    between atoms: _118  and  _120
REMARK   49  A    between atoms: _120  and  _121
REMARK   50  A    between atoms: _123  and  _125
REMARK   51  A    between atoms: _125  and  _126
REMARK   52  A    between atoms: _125  and  _128
REMARK   53  A    between atoms: _128  and  _129
REMARK   54  A    between atoms: _135  and  _137
REMARK   55  A    between atoms: _137  and  _138
REMARK   56  A    between atoms: _137  and  _140
REMARK   57  A    between atoms: _140  and  _141
REMARK   58  A    between atoms: _147  and  _149
REMARK   59  A    between atoms: _149  and  _150
REMARK   60  A    between atoms: _149  and  _152
REMARK   61  A    between atoms: _152  and  _153
REMARK   62  A    between atoms: _158  and  _159
REMARK   63  A    between atoms: _161  and  _163
REMARK   64  A    between atoms: _163  and  _164
REMARK   65  A    between atoms: _163  and  _166
REMARK   66  A    between atoms: _166  and  _167
REMARK   67  A    between atoms: _167  and  _168
REMARK   68  A    between atoms: _168  and  _169
REMARK   69  A    between atoms: _178  and  _180
REMARK   70  A    between atoms: _180  and  _181
REMARK   71  A    between atoms: _180  and  _183
REMARK   72  A    between atoms: _183  and  _184
REMARK   73  A    between atoms: _187  and  _189
REMARK   74  A    between atoms: _189  and  _190
REMARK   75  A    between atoms: _189  and  _192
REMARK   76  A    between atoms: _192  and  _193
REMARK   77  A    between atoms: _198  and  _200
REMARK   78  A    between atoms: _200  and  _201
REMARK   79  A    between atoms: _204  and  _206
REMARK   80  A    between atoms: _206  and  _207
REMARK   81  A    between atoms: _206  and  _209
REMARK   82  A    between atoms: _209  and  _210
REMARK   83  A    between atoms: _212  and  _214
REMARK   84  A    between atoms: _214  and  _215
REMARK   85  A    between atoms: _217  and  _219
REMARK   86  A    between atoms: _219  and  _220
REMARK   87  A    between atoms: _219  and  _222
REMARK   88  A    between atoms: _222  and  _223
REMARK   89  A    between atoms: _228  and  _230
REMARK   90  A    between atoms: _230  and  _231
REMARK   91  A    between atoms: _230  and  _233
REMARK   92  A    between atoms: _233  and  _234
REMARK   93  A    between atoms: _239  and  _241
REMARK   94  A    between atoms: _241  and  _242
REMARK   95  A    between atoms: _241  and  _244
REMARK   96  A    between atoms: _244  and  _245
REMARK   97  A    between atoms: _251  and  _253
REMARK   98  A    between atoms: _253  and  _254
REMARK   99  A    between atoms: _253  and  _256
REMARK                            x       y       z     vdW  Elec       q    Type
REMARK                         _______ _______ _______ _____ _____    ______ ____
ROOT
ATOM      1  CB  HIS A   1      30.019 -38.963   7.898  0.00  0.00    +0.072 C 
ENDROOT
BRANCH   1   2
ATOM      2  CG  HIS A   1      28.901 -39.778   7.329  0.00  0.00    +0.082 A 
ATOM      3  CD2 HIS A   1      27.564 -39.612   7.421  0.00  0.00    +0.115 A 
ATOM      4  NE2 HIS A   1      26.980 -40.624   6.729  0.00  0.00    -0.221 NA
ATOM      5  CE1 HIS A   1      27.916 -41.371   6.179  0.00  0.00    +0.199 A 
ATOM      6  ND1 HIS A   1      29.097 -40.900   6.554  0.00  0.00    -0.227 NA
ENDBRANCH   1   2
BRANCH   1   7
ATOM      7  CA  HIS A   1      31.165 -39.842   8.410  0.00  0.00    +0.139 C 
BRANCH   7   8
ATOM      8  N   HIS A   1      30.954 -40.418   9.746  0.00  0.00    -0.239 NA
ATOM      9  H   HIS A   1      30.213 -40.017  10.355  0.00  0.00    +0.142 HD
ENDBRANCH   7   8
BRANCH   7  10
ATOM     10  C   HIS A   1      32.444 -38.958   8.431  0.00  0.00    +0.224 C 
ATOM     11  O   HIS A   1      33.121 -38.803   7.403  0.00  0.00    -0.287 OA
ENDBRANCH   7  10
ENDBRANCH   1   7
TORSDOF 4
REMARK  Name = ../refined-set-2016/1det/1det_pocket.pdb
REMARK  99 active torsions:
REMARK  status: ('A' for Active; 'I' for Inactive)
REMARK    1  A    between atoms: _1  and  _3
REMARK    2  A    between atoms: _3  and  _4
REMARK    3  A    between atoms: _3  and  _6
REMARK    4  A    between atoms: _6  and  _7
REMARK    5  A    between atoms: _12  and  _14
REMARK    6  A    between atoms: _14  and  _15
REMARK    7  A    between atoms: _14  and  _17
REMARK    8  A    between atoms: _17  and  _18
REMARK    9  A    between atoms: _20  and  _22
REMARK   10  A    between atoms: _22  and  _23
REMARK   11  A    between atoms: _22  and  _25
REMARK   12  A    between atoms: _25  and  _26
REMARK   13  A    between atoms: _31  and  _32
REMARK   14  A    between atoms: _34  and  _36
REMARK   15  A    between atoms: _36  and  _37
REMARK   16  A    between atoms: _36  and  _39
REMARK   17  A    between atoms: _39  and  _40
REMARK   18  A    between atoms: _45  and  _47
REMARK   19  A    between atoms: _47  and  _48
REMARK   20  A    between atoms: _47  and  _50
REMARK   21  A    between atoms: _50  and  _51
REMARK   22  A    between atoms: _51  and  _52
REMARK   23  A    between atoms: _52  and  _53
REMARK   24  A    between atoms: _53  and  _54
REMARK   25  A    between atoms: _58  and  _60
REMARK   26  A    between atoms: _60  and  _61
REMARK   27  A    between atoms: _60  and  _63
REMARK   28  A    between atoms: _63  and  _64
REMARK   29  A    between atoms: _69  and  _70
REMARK   30  A    between atoms: _72  and  _74
REMARK   31  A    between atoms: _74  and  _75
REMARK   32  A    between atoms: _74  and  _77
REMARK   33  A    between atoms: _77  and  _78
REMARK   34  A    between atoms: _83  and  _85
REMARK   35  A    between atoms: _85  and  _86
REMARK   36  A    between atoms: _85  and  _88
REMARK   37  A    between atoms: _88  and  _89
REMARK   38  A    between atoms: _94  and  _96
REMARK   39  A    between atoms: _96  and  _97
REMARK   40  A    between atoms: _96  and  _99
REMARK   41  A    between atoms: _99  and  _100
REMARK   42  A    between atoms: _105  and  _106
REMARK   43  A    between atoms: _108  and  _110
REMARK   44  A    between atoms: _110  and  _111
REMARK   45  A    between atoms: _110  and  _113
REMARK   46  A    between atoms: _113  and  _114
REMARK   47  A    between atoms: _114  and  _115
REMARK   48  A    between atoms: _118  and  _120
REMARK   49  A    between atoms: _120  and  _121
REMARK   50  A    between atoms: _123  and  _125
REMARK   51  A    between atoms: _125  and  _126
REMARK   52  A    between atoms: _125  and  _128
REMARK   53  A    between atoms: _128  and  _129
REMARK   54  A    between atoms: _135  and  _137
REMARK   55  A    between atoms: _137  and  _138
REMARK   56  A    between atoms: _137  and  _140
REMARK   57  A    between atoms: _140  and  _141
REMARK   58  A    between atoms: _147  and  _149
REMARK   59  A    between atoms: _149  and  _150
REMARK   60  A    between atoms: _149  and  _152
REMARK   61  A    between atoms: _152  and  _153
REMARK   62  A    between atoms: _158  and  _159
REMARK   63  A    between atoms: _161  and  _163
REMARK   64  A    between atoms: _163  and  _164
REMARK   65  A    between atoms: _163  and  _166
REMARK   66  A    between atoms: _166  and  _167
REMARK   67  A    between atoms: _167  and  _168
REMARK   68  A    between atoms: _168  and  _169
REMARK   69  A    between atoms: _178  and  _180
REMARK   70  A    between atoms: _180  and  _181
REMARK   71  A    between atoms: _180  and  _183
REMARK   72  A    between atoms: _183  and  _184
REMARK   73  A    between atoms: _187  and  _189
REMARK   74  A    between atoms: _189  and  _190
REMARK   75  A    between atoms: _189  and  _192
REMARK   76  A    between atoms: _192  and  _193
REMARK   77  A    between atoms: _198  and  _200
REMARK   78  A    between atoms: _200  and  _201
REMARK   79  A    between atoms: _204  and  _206
REMARK   80  A    between atoms: _206  and  _207
REMARK   81  A    between atoms: _206  and  _209
REMARK   82  A    between atoms: _209  and  _210
REMARK   83  A    between atoms: _212  and  _214
REMARK   84  A    between atoms: _214  and  _215
REMARK   85  A    between atoms: _217  and  _219
REMARK   86  A    between atoms: _219  and  _220
REMARK   87  A    between atoms: _219  and  _222
REMARK   88  A    between atoms: _222  and  _223
REMARK   89  A    between atoms: _228  and  _230
REMARK   90  A    between atoms: _230  and  _231
REMARK   91  A    between atoms: _230  and  _233
REMARK   92  A    between atoms: _233  and  _234
REMARK   93  A    between atoms: _239  and  _241
REMARK   94  A    between atoms: _241  and  _242
REMARK   95  A    between atoms: _241  and  _244
REMARK   96  A    between atoms: _244  and  _245
REMARK   97  A    between atoms: _251  and  _253
REMARK   98  A    between atoms: _253  and  _254
REMARK   99  A    between atoms: _253  and  _256
REMARK                            x       y       z     vdW  Elec       q    Type
REMARK                         _______ _______ _______ _____ _____    ______ ____
ROOT
ATOM      1  C   ASN A   4      29.681 -42.228   2.673  0.00  0.00    +0.241 C 
ATOM      2  O   ASN A   4      28.806 -42.895   3.227  0.00  0.00    -0.273 OA
ATOM      3  N   ASN A   5      30.936 -42.570   2.728  0.00  0.00    -0.297 N 
ATOM      4  H   ASN A   5      31.633 -42.000   2.207  0.00  0.00    +0.150 HD
ENDROOT
BRANCH   3   5
ATOM      5  CA  ASN A   5      31.409 -43.736   3.501  0.00  0.00    +0.158 C 
BRANCH   5   6
ATOM      6  C   ASN A   5      31.587 -43.271   4.966  0.00  0.00    +0.241 C 
ATOM      7  N   PHE A   6      31.918 -44.164   5.840  0.00  0.00    -0.297 N 
ATOM      8  H   PHE A   6      31.998 -45.107   5.408  0.00  0.00    +0.150 HD
ATOM      9  O   ASN A   5      31.430 -42.095   5.280  0.00  0.00    -0.273 OA
BRANCH   7  10
ATOM     10  CA  PHE A   6      32.202 -44.205   7.230  0.00  0.00    +0.153 C 
BRANCH  10  11
ATOM     11  C   PHE A   6      33.611 -44.816   7.507  0.00  0.00    +0.241 C 
ATOM     12  N   VAL A   7      34.233 -44.313   8.531  0.00  0.00    -0.298 N 
ATOM     13  H   VAL A   7      33.781 -43.496   8.989  0.00  0.00    +0.150 HD
ATOM     14  O   PHE A   6      34.130 -45.727   6.875  0.00  0.00    -0.273 OA
BRANCH  12  15
ATOM     15  CA  VAL A   7      35.505 -44.768   9.116  0.00  0.00    +0.137 C 
BRANCH  15  16
ATOM     16  CB  VAL A   7      36.586 -43.694   8.992  0.00  0.00    +0.026 C 
ATOM     17  CG2 VAL A   7      36.197 -42.391   9.638  0.00  0.00    +0.002 C 
ATOM     18  CG1 VAL A   7      36.986 -43.442   7.567  0.00  0.00    +0.002 C 
ENDBRANCH  15  16
BRANCH  15  19
ATOM     19  C   VAL A   7      35.142 -45.204  10.553  0.00  0.00    +0.227 C 
ATOM     20  O   VAL A   7      34.075 -44.869  11.134  0.00  0.00    -0.286 OA
ENDBRANCH  15  19
ENDBRANCH  12  15
ENDBRANCH  10  11
BRANCH  10  21
ATOM     21  CB  PHE A   6      31.187 -45.131   8.010  0.00  0.00    +0.055 C 
BRANCH  21  22
ATOM     22  CG  PHE A   6      29.801 -44.610   8.095  0.00  0.00    -0.020 A 
ATOM     23  CD2 PHE A   6      29.433 -43.630   9.024  0.00  0.00    -0.004 A 
ATOM     24  CE2 PHE A   6      28.157 -43.097   9.078  0.00  0.00    -0.000 A 
ATOM     25  CZ  PHE A   6      27.176 -43.605   8.203  0.00  0.00    -0.000 A 
ATOM     26  CE1 PHE A   6      27.505 -44.539   7.238  0.00  0.00    -0.000 A 
ATOM     27  CD1 PHE A   6      28.822 -45.033   7.190  0.00  0.00    -0.004 A 
ENDBRANCH  21  22
ENDBRANCH  10  21
ENDBRANCH   7  10
ENDBRANCH   5   6
BRANCH   5  28
ATOM     28  CB  ASN A   5      32.691 -44.242   2.850  0.00  0.00    +0.114 C 
BRANCH  28  29
ATOM     29  CG  ASN A   5      32.601 -45.193   1.686  0.00  0.00    +0.222 C 
ATOM     30  OD1 ASN A   5      33.702 -45.649   1.257  0.00  0.00    -0.275 OA
ATOM     31  ND2 ASN A   5      31.450 -45.540   1.182  0.00  0.00    -0.329 N 
ATOM     32 HD21 ASN A   5      30.571 -45.139   1.567  0.00  0.00    +0.145 HD
ATOM     33 HD22 ASN A   5      31.410 -46.218   0.394  0.00  0.00    +0.145 HD
ENDBRANCH  28  29
ENDBRANCH   5  28
ENDBRANCH   3   5
BRANCH   1  34
ATOM     34  CA  ASN A   4      29.285 -40.999   1.867  0.00  0.00    +0.158 C 
BRANCH  34  37
ATOM     35  C   GLY A   3      31.051 -39.646   0.922  0.00  0.00    +0.243 C 
ATOM     36  O   GLY A   3      31.014 -38.763   1.810  0.00  0.00    -0.273 OA
ATOM     37  N   ASN A   4      30.296 -40.744   0.808  0.00  0.00    -0.297 N 
ATOM     38  H   ASN A   4      30.412 -41.396   0.006  0.00  0.00    +0.150 HD
BRANCH  35  39
ATOM     39  CA  GLY A   3      32.075 -39.581  -0.236  0.00  0.00    +0.176 C 
BRANCH  39  42
ATOM     40  C   SER A   2      33.903 -40.072   1.348  0.00  0.00    +0.243 C 
ATOM     41  O   SER A   2      33.382 -41.113   1.768  0.00  0.00    -0.273 OA
ATOM     42  N   GLY A   3      33.359 -39.313   0.407  0.00  0.00    -0.295 N 
ATOM     43  H   GLY A   3      33.883 -38.467   0.105  0.00  0.00    +0.150 HD
BRANCH  40  44
ATOM     44  CA  SER A   2      35.244 -39.580   1.874  0.00  0.00    +0.178 C 
BRANCH  44  47
ATOM     45  C   ALA A   1      35.247 -39.783   4.261  0.00  0.00    +0.238 C 
ATOM     46  O   ALA A   1      34.777 -38.631   4.358  0.00  0.00    -0.274 OA
ATOM     47  N   SER A   2      35.567 -40.337   3.097  0.00  0.00    -0.295 N 
ATOM     48  H   SER A   2      36.027 -41.268   3.050  0.00  0.00    +0.150 HD
BRANCH  45  49
ATOM     49  CA  ALA A   1      35.578 -40.635   5.483  0.00  0.00    +0.145 C 
ATOM     50  CB  ALA A   1      34.584 -41.694   5.868  0.00  0.00    +0.028 C 
BRANCH  49  51
ATOM     51  N   ALA A   1      35.806 -39.676   6.571  0.00  0.00    -0.238 NA
ATOM     52  H   ALA A   1      34.996 -39.214   7.031  0.00  0.00    +0.142 HD
ENDBRANCH  49  51
ENDBRANCH  45  49
ENDBRANCH  44  47
BRANCH  44  53
ATOM     53  CB  SER A   2      36.367 -39.786   0.867  0.00  0.00    +0.166 C 
BRANCH  53  54
ATOM     54  OG  SER A   2      36.327 -41.150   0.430  0.00  0.00    -0.380 OA
ATOM     55  H   SER A   2      37.051 -41.306  -0.227  0.00  0.00    +0.211 HD
ENDBRANCH  53  54
ENDBRANCH  44  53
ENDBRANCH  40  44
ENDBRANCH  39  42
ENDBRANCH  35  39
ENDBRANCH  34  37
BRANCH  34  56
ATOM     56  CB  ASN A   4      27.893 -41.048   1.242  0.00  0.00    +0.114 C 
BRANCH  56  57
ATOM     57  CG  ASN A   4      27.710 -42.062   0.107  0.00  0.00    +0.222 C 
ATOM     58  OD1 ASN A   4      28.642 -42.801  -0.268  0.00  0.00    -0.275 OA
ATOM     59  ND2 ASN A   4      26.444 -42.109  -0.350  0.00  0.00    -0.329 N 
ATOM     60 HD21 ASN A   4      25.732 -41.450   0.023  0.00  0.00    +0.145 HD
ATOM     61 HD22 ASN A   4      26.179 -42.805  -1.076  0.00  0.00    +0.145 HD
ENDBRANCH  56  57
ENDBRANCH  34  56
ENDBRANCH   1  34
TORSDOF 23
REMARK  Name = ../refined-set-2016/1det/1det_pocket.pdb
REMARK  99 active torsions:
REMARK  status: ('A' for Active; 'I' for Inactive)
REMARK    1  A    between atoms: _1  and  _3
REMARK    2  A    between atoms: _3  and  _4
REMARK    3  A    between atoms: _3  and  _6
REMARK    4  A    between atoms: _6  and  _7
REMARK    5  A    between atoms: _12  and  _14
REMARK    6  A    between atoms: _14  and  _15
REMARK    7  A    between atoms: _14  and  _17
REMARK    8  A    between atoms: _17  and  _18
REMARK    9  A    between atoms: _20  and  _22
REMARK   10  A    between atoms: _22  and  _23
REMARK   11  A    between atoms: _22  and  _25
REMARK   12  A    between atoms: _25  and  _26
REMARK   13  A    between atoms: _31  and  _32
REMARK   14  A    between atoms: _34  and  _36
REMARK   15  A    between atoms: _36  and  _37
REMARK   16  A    between atoms: _36  and  _39
REMARK   17  A    between atoms: _39  and  _40
REMARK   18  A    between atoms: _45  and  _47
REMARK   19  A    between atoms: _47  and  _48
REMARK   20  A    between atoms: _47  and  _50
REMARK   21  A    between atoms: _50  and  _51
REMARK   22  A    between atoms: _51  and  _52
REMARK   23  A    between atoms: _52  and  _53
REMARK   24  A    between atoms: _53  and  _54
REMARK   25  A    between atoms: _58  and  _60
REMARK   26  A    between atoms: _60  and  _61
REMARK   27  A    between atoms: _60  and  _63
REMARK   28  A    between atoms: _63  and  _64
REMARK   29  A    between atoms: _69  and  _70
REMARK   30  A    between atoms: _72  and  _74
REMARK   31  A    between atoms: _74  and  _75
REMARK   32  A    between atoms: _74  and  _77
REMARK   33  A    between atoms: _77  and  _78
REMARK   34  A    between atoms: _83  and  _85
REMARK   35  A    between atoms: _85  and  _86
REMARK   36  A    between atoms: _85  and  _88
REMARK   37  A    between atoms: _88  and  _89
REMARK   38  A    between atoms: _94  and  _96
REMARK   39  A    between atoms: _96  and  _97
REMARK   40  A    between atoms: _96  and  _99
REMARK   41  A    between atoms: _99  and  _100
REMARK   42  A    between atoms: _105  and  _106
REMARK   43  A    between atoms: _108  and  _110
REMARK   44  A    between atoms: _110  and  _111
REMARK   45  A    between atoms: _110  and  _113
REMARK   46  A    between atoms: _113  and  _114
REMARK   47  A    between atoms: _114  and  _115
REMARK   48  A    between atoms: _118  and  _120
REMARK   49  A    between atoms: _120  and  _121
REMARK   50  A    between atoms: _123  and  _125
REMARK   51  A    between atoms: _125  and  _126
REMARK   52  A    between atoms: _125  and  _128
REMARK   53  A    between atoms: _128  and  _129
REMARK   54  A    between atoms: _135  and  _137
REMARK   55  A    between atoms: _137  and  _138
REMARK   56  A    between atoms: _137  and  _140
REMARK   57  A    between atoms: _140  and  _141
REMARK   58  A    between atoms: _147  and  _149
REMARK   59  A    between atoms: _149  and  _150
REMARK   60  A    between atoms: _149  and  _152
REMARK   61  A    between atoms: _152  and  _153
REMARK   62  A    between atoms: _158  and  _159
REMARK   63  A    between atoms: _161  and  _163
REMARK   64  A    between atoms: _163  and  _164
REMARK   65  A    between atoms: _163  and  _166
REMARK   66  A    between atoms: _166  and  _167
REMARK   67  A    between atoms: _167  and  _168
REMARK   68  A    between atoms: _168  and  _169
REMARK   69  A    between atoms: _178  and  _180
REMARK   70  A    between atoms: _180  and  _181
REMARK   71  A    between atoms: _180  and  _183
REMARK   72  A    between atoms: _183  and  _184
REMARK   73  A    between atoms: _187  and  _189
REMARK   74  A    between atoms: _189  and  _190
REMARK   75  A    between atoms: _189  and  _192
REMARK   76  A    between atoms: _192  and  _193
REMARK   77  A    between atoms: _198  and  _200
REMARK   78  A    between atoms: _200  and  _201
REMARK   79  A    between atoms: _204  and  _206
REMARK   80  A    between atoms: _206  and  _207
REMARK   81  A    between atoms: _206  and  _209
REMARK   82  A    between atoms: _209  and  _210
REMARK   83  A    between atoms: _212  and  _214
REMARK   84  A    between atoms: _214  and  _215
REMARK   85  A    between atoms: _217  and  _219
REMARK   86  A    between atoms: _219  and  _220
REMARK   87  A    between atoms: _219  and  _222
REMARK   88  A    between atoms: _222  and  _223
REMARK   89  A    between atoms: _228  and  _230
REMARK   90  A    between atoms: _230  and  _231
REMARK   91  A    between atoms: _230  and  _233
REMARK   92  A    between atoms: _233  and  _234
REMARK   93  A    between atoms: _239  and  _241
REMARK   94  A    between atoms: _241  and  _242
REMARK   95  A    between atoms: _241  and  _244
REMARK   96  A    between atoms: _244  and  _245
REMARK   97  A    between atoms: _251  and  _253
REMARK   98  A    between atoms: _253  and  _254
REMARK   99  A    between atoms: _253  and  _256
REMARK                            x       y       z     vdW  Elec       q    Type
REMARK                         _______ _______ _______ _____ _____    ______ ____
ROOT
ATOM      1  O   HOH     1      31.238 -39.132   4.215  0.00  0.00    +0.000 OA
ENDROOT
TORSDOF 0
REMARK  Name = ../refined-set-2016/1det/1det_pocket.pdb
REMARK  99 active torsions:
REMARK  status: ('A' for Active; 'I' for Inactive)
REMARK    1  A    between atoms: _1  and  _3
REMARK    2  A    between atoms: _3  and  _4
REMARK    3  A    between atoms: _3  and  _6
REMARK    4  A    between atoms: _6  and  _7
REMARK    5  A    between atoms: _12  and  _14
REMARK    6  A    between atoms: _14  and  _15
REMARK    7  A    between atoms: _14  and  _17
REMARK    8  A    between atoms: _17  and  _18
REMARK    9  A    between atoms: _20  and  _22
REMARK   10  A    between atoms: _22  and  _23
REMARK   11  A    between atoms: _22  and  _25
REMARK   12  A    between atoms: _25  and  _26
REMARK   13  A    between atoms: _31  and  _32
REMARK   14  A    between atoms: _34  and  _36
REMARK   15  A    between atoms: _36  and  _37
REMARK   16  A    between atoms: _36  and  _39
REMARK   17  A    between atoms: _39  and  _40
REMARK   18  A    between atoms: _45  and  _47
REMARK   19  A    between atoms: _47  and  _48
REMARK   20  A    between atoms: _47  and  _50
REMARK   21  A    between atoms: _50  and  _51
REMARK   22  A    between atoms: _51  and  _52
REMARK   23  A    between atoms: _52  and  _53
REMARK   24  A    between atoms: _53  and  _54
REMARK   25  A    between atoms: _58  and  _60
REMARK   26  A    between atoms: _60  and  _61
REMARK   27  A    between atoms: _60  and  _63
REMARK   28  A    between atoms: _63  and  _64
REMARK   29  A    between atoms: _69  and  _70
REMARK   30  A    between atoms: _72  and  _74
REMARK   31  A    between atoms: _74  and  _75
REMARK   32  A    between atoms: _74  and  _77
REMARK   33  A    between atoms: _77  and  _78
REMARK   34  A    between atoms: _83  and  _85
REMARK   35  A    between atoms: _85  and  _86
REMARK   36  A    between atoms: _85  and  _88
REMARK   37  A    between atoms: _88  and  _89
REMARK   38  A    between atoms: _94  and  _96
REMARK   39  A    between atoms: _96  and  _97
REMARK   40  A    between atoms: _96  and  _99
REMARK   41  A    between atoms: _99  and  _100
REMARK   42  A    between atoms: _105  and  _106
REMARK   43  A    between atoms: _108  and  _110
REMARK   44  A    between atoms: _110  and  _111
REMARK   45  A    between atoms: _110  and  _113
REMARK   46  A    between atoms: _113  and  _114
REMARK   47  A    between atoms: _114  and  _115
REMARK   48  A    between atoms: _118  and  _120
REMARK   49  A    between atoms: _120  and  _121
REMARK   50  A    between atoms: _123  and  _125
REMARK   51  A    between atoms: _125  and  _126
REMARK   52  A    between atoms: _125  and  _128
REMARK   53  A    between atoms: _128  and  _129
REMARK   54  A    between atoms: _135  and  _137
REMARK   55  A    between atoms: _137  and  _138
REMARK   56  A    between atoms: _137  and  _140
REMARK   57  A    between atoms: _140  and  _141
REMARK   58  A    between atoms: _147  and  _149
REMARK   59  A    between atoms: _149  and  _150
REMARK   60  A    between atoms: _149  and  _152
REMARK   61  A    between atoms: _152  and  _153
REMARK   62  A    between atoms: _158  and  _159
REMARK   63  A    between atoms: _161  and  _163
REMARK   64  A    between atoms: _163  and  _164
REMARK   65  A    between atoms: _163  and  _166
REMARK   66  A    between atoms: _166  and  _167
REMARK   67  A    between atoms: _167  and  _168
REMARK   68  A    between atoms: _168  and  _169
REMARK   69  A    between atoms: _178  and  _180
REMARK   70  A    between atoms: _180  and  _181
REMARK   71  A    between atoms: _180  and  _183
REMARK   72  A    between atoms: _183  and  _184
REMARK   73  A    between atoms: _187  and  _189
REMARK   74  A    between atoms: _189  and  _190
REMARK   75  A    between atoms: _189  and  _192
REMARK   76  A    between atoms: _192  and  _193
REMARK   77  A    between atoms: _198  and  _200
REMARK   78  A    between atoms: _200  and  _201
REMARK   79  A    between atoms: _204  and  _206
REMARK   80  A    between atoms: _206  and  _207
REMARK   81  A    between atoms: _206  and  _209
REMARK   82  A    between atoms: _209  and  _210
REMARK   83  A    between atoms: _212  and  _214
REMARK   84  A    between atoms: _214  and  _215
REMARK   85  A    between atoms: _217  and  _219
REMARK   86  A    between atoms: _219  and  _220
REMARK   87  A    between atoms: _219  and  _222
REMARK   88  A    between atoms: _222  and  _223
REMARK   89  A    between atoms: _228  and  _230
REMARK   90  A    between atoms: _230  and  _231
REMARK   91  A    between atoms: _230  and  _233
REMARK   92  A    between atoms: _233  and  _234
REMARK   93  A    between atoms: _239  and  _241
REMARK   94  A    between atoms: _241  and  _242
REMARK   95  A    between atoms: _241  and  _244
REMARK   96  A    between atoms: _244  and  _245
REMARK   97  A    between atoms: _251  and  _253
REMARK   98  A    between atoms: _253  and  _254
REMARK   99  A    between atoms: _253  and  _256
REMARK                            x       y       z     vdW  Elec       q    Type
REMARK                         _______ _______ _______ _____ _____    ______ ____
ROOT
ATOM      1  O   HOH     1      20.070 -51.608   3.263  0.00  0.00    +0.000 OA
ENDROOT
TORSDOF 0
REMARK  Name = ../refined-set-2016/1det/1det_pocket.pdb
REMARK  99 active torsions:
REMARK  status: ('A' for Active; 'I' for Inactive)
REMARK    1  A    between atoms: _1  and  _3
REMARK    2  A    between atoms: _3  and  _4
REMARK    3  A    between atoms: _3  and  _6
REMARK    4  A    between atoms: _6  and  _7
REMARK    5  A    between atoms: _12  and  _14
REMARK    6  A    between atoms: _14  and  _15
REMARK    7  A    between atoms: _14  and  _17
REMARK    8  A    between atoms: _17  and  _18
REMARK    9  A    between atoms: _20  and  _22
REMARK   10  A    between atoms: _22  and  _23
REMARK   11  A    between atoms: _22  and  _25
REMARK   12  A    between atoms: _25  and  _26
REMARK   13  A    between atoms: _31  and  _32
REMARK   14  A    between atoms: _34  and  _36
REMARK   15  A    between atoms: _36  and  _37
REMARK   16  A    between atoms: _36  and  _39
REMARK   17  A    between atoms: _39  and  _40
REMARK   18  A    between atoms: _45  and  _47
REMARK   19  A    between atoms: _47  and  _48
REMARK   20  A    between atoms: _47  and  _50
REMARK   21  A    between atoms: _50  and  _51
REMARK   22  A    between atoms: _51  and  _52
REMARK   23  A    between atoms: _52  and  _53
REMARK   24  A    between atoms: _53  and  _54
REMARK   25  A    between atoms: _58  and  _60
REMARK   26  A    between atoms: _60  and  _61
REMARK   27  A    between atoms: _60  and  _63
REMARK   28  A    between atoms: _63  and  _64
REMARK   29  A    between atoms: _69  and  _70
REMARK   30  A    between atoms: _72  and  _74
REMARK   31  A    between atoms: _74  and  _75
REMARK   32  A    between atoms: _74  and  _77
REMARK   33  A    between atoms: _77  and  _78
REMARK   34  A    between atoms: _83  and  _85
REMARK   35  A    between atoms: _85  and  _86
REMARK   36  A    between atoms: _85  and  _88
REMARK   37  A    between atoms: _88  and  _89
REMARK   38  A    between atoms: _94  and  _96
REMARK   39  A    between atoms: _96  and  _97
REMARK   40  A    between atoms: _96  and  _99
REMARK   41  A    between atoms: _99  and  _100
REMARK   42  A    between atoms: _105  and  _106
REMARK   43  A    between atoms: _108  and  _110
REMARK   44  A    between atoms: _110  and  _111
REMARK   45  A    between atoms: _110  and  _113
REMARK   46  A    between atoms: _113  and  _114
REMARK   47  A    between atoms: _114  and  _115
REMARK   48  A    between atoms: _118  and  _120
REMARK   49  A    between atoms: _120  and  _121
REMARK   50  A    between atoms: _123  and  _125
REMARK   51  A    between atoms: _125  and  _126
REMARK   52  A    between atoms: _125  and  _128
REMARK   53  A    between atoms: _128  and  _129
REMARK   54  A    between atoms: _135  and  _137
REMARK   55  A    between atoms: _137  and  _138
REMARK   56  A    between atoms: _137  and  _140
REMARK   57  A    between atoms: _140  and  _141
REMARK   58  A    between atoms: _147  and  _149
REMARK   59  A    between atoms: _149  and  _150
REMARK   60  A    between atoms: _149  and  _152
REMARK   61  A    between atoms: _152  and  _153
REMARK   62  A    between atoms: _158  and  _159
REMARK   63  A    between atoms: _161  and  _163
REMARK   64  A    between atoms: _163  and  _164
REMARK   65  A    between atoms: _163  and  _166
REMARK   66  A    between atoms: _166  and  _167
REMARK   67  A    between atoms: _167  and  _168
REMARK   68  A    between atoms: _168  and  _169
REMARK   69  A    between atoms: _178  and  _180
REMARK   70  A    between atoms: _180  and  _181
REMARK   71  A    between atoms: _180  and  _183
REMARK   72  A    between atoms: _183  and  _184
REMARK   73  A    between atoms: _187  and  _189
REMARK   74  A    between atoms: _189  and  _190
REMARK   75  A    between atoms: _189  and  _192
REMARK   76  A    between atoms: _192  and  _193
REMARK   77  A    between atoms: _198  and  _200
REMARK   78  A    between atoms: _200  and  _201
REMARK   79  A    between atoms: _204  and  _206
REMARK   80  A    between atoms: _206  and  _207
REMARK   81  A    between atoms: _206  and  _209
REMARK   82  A    between atoms: _209  and  _210
REMARK   83  A    between atoms: _212  and  _214
REMARK   84  A    between atoms: _214  and  _215
REMARK   85  A    between atoms: _217  and  _219
REMARK   86  A    between atoms: _219  and  _220
REMARK   87  A    between atoms: _219  and  _222
REMARK   88  A    between atoms: _222  and  _223
REMARK   89  A    between atoms: _228  and  _230
REMARK   90  A    between atoms: _230  and  _231
REMARK   91  A    between atoms: _230  and  _233
REMARK   92  A    between atoms: _233  and  _234
REMARK   93  A    between atoms: _239  and  _241
REMARK   94  A    between atoms: _241  and  _242
REMARK   95  A    between atoms: _241  and  _244
REMARK   96  A    between atoms: _244  and  _245
REMARK   97  A    between atoms: _251  and  _253
REMARK   98  A    between atoms: _253  and  _254
REMARK   99  A    between atoms: _253  and  _256
REMARK                            x       y       z     vdW  Elec       q    Type
REMARK                         _______ _______ _______ _____ _____    ______ ____
ROOT
ATOM      1  O   HOH     1      25.668 -42.667   4.412  0.00  0.00    +0.000 OA
ENDROOT
TORSDOF 0
REMARK  Name = ../refined-set-2016/1det/1det_pocket.pdb
REMARK  99 active torsions:
REMARK  status: ('A' for Active; 'I' for Inactive)
REMARK    1  A    between atoms: _1  and  _3
REMARK    2  A    between atoms: _3  and  _4
REMARK    3  A    between atoms: _3  and  _6
REMARK    4  A    between atoms: _6  and  _7
REMARK    5  A    between atoms: _12  and  _14
REMARK    6  A    between atoms: _14  and  _15
REMARK    7  A    between atoms: _14  and  _17
REMARK    8  A    between atoms: _17  and  _18
REMARK    9  A    between atoms: _20  and  _22
REMARK   10  A    between atoms: _22  and  _23
REMARK   11  A    between atoms: _22  and  _25
REMARK   12  A    between atoms: _25  and  _26
REMARK   13  A    between atoms: _31  and  _32
REMARK   14  A    between atoms: _34  and  _36
REMARK   15  A    between atoms: _36  and  _37
REMARK   16  A    between atoms: _36  and  _39
REMARK   17  A    between atoms: _39  and  _40
REMARK   18  A    between atoms: _45  and  _47
REMARK   19  A    between atoms: _47  and  _48
REMARK   20  A    between atoms: _47  and  _50
REMARK   21  A    between atoms: _50  and  _51
REMARK   22  A    between atoms: _51  and  _52
REMARK   23  A    between atoms: _52  and  _53
REMARK   24  A    between atoms: _53  and  _54
REMARK   25  A    between atoms: _58  and  _60
REMARK   26  A    between atoms: _60  and  _61
REMARK   27  A    between atoms: _60  and  _63
REMARK   28  A    between atoms: _63  and  _64
REMARK   29  A    between atoms: _69  and  _70
REMARK   30  A    between atoms: _72  and  _74
REMARK   31  A    between atoms: _74  and  _75
REMARK   32  A    between atoms: _74  and  _77
REMARK   33  A    between atoms: _77  and  _78
REMARK   34  A    between atoms: _83  and  _85
REMARK   35  A    between atoms: _85  and  _86
REMARK   36  A    between atoms: _85  and  _88
REMARK   37  A    between atoms: _88  and  _89
REMARK   38  A    between atoms: _94  and  _96
REMARK   39  A    between atoms: _96  and  _97
REMARK   40  A    between atoms: _96  and  _99
REMARK   41  A    between atoms: _99  and  _100
REMARK   42  A    between atoms: _105  and  _106
REMARK   43  A    between atoms: _108  and  _110
REMARK   44  A    between atoms: _110  and  _111
REMARK   45  A    between atoms: _110  and  _113
REMARK   46  A    between atoms: _113  and  _114
REMARK   47  A    between atoms: _114  and  _115
REMARK   48  A    between atoms: _118  and  _120
REMARK   49  A    between atoms: _120  and  _121
REMARK   50  A    between atoms: _123  and  _125
REMARK   51  A    between atoms: _125  and  _126
REMARK   52  A    between atoms: _125  and  _128
REMARK   53  A    between atoms: _128  and  _129
REMARK   54  A    between atoms: _135  and  _137
REMARK   55  A    between atoms: _137  and  _138
REMARK   56  A    between atoms: _137  and  _140
REMARK   57  A    between atoms: _140  and  _141
REMARK   58  A    between atoms: _147  and  _149
REMARK   59  A    between atoms: _149  and  _150
REMARK   60  A    between atoms: _149  and  _152
REMARK   61  A    between atoms: _152  and  _153
REMARK   62  A    between atoms: _158  and  _159
REMARK   63  A    between atoms: _161  and  _163
REMARK   64  A    between atoms: _163  and  _164
REMARK   65  A    between atoms: _163  and  _166
REMARK   66  A    between atoms: _166  and  _167
REMARK   67  A    between atoms: _167  and  _168
REMARK   68  A    between atoms: _168  and  _169
REMARK   69  A    between atoms: _178  and  _180
REMARK   70  A    between atoms: _180  and  _181
REMARK   71  A    between atoms: _180  and  _183
REMARK   72  A    between atoms: _183  and  _184
REMARK   73  A    between atoms: _187  and  _189
REMARK   74  A    between atoms: _189  and  _190
REMARK   75  A    between atoms: _189  and  _192
REMARK   76  A    between atoms: _192  and  _193
REMARK   77  A    between atoms: _198  and  _200
REMARK   78  A    between atoms: _200  and  _201
REMARK   79  A    between atoms: _204  and  _206
REMARK   80  A    between atoms: _206  and  _207
REMARK   81  A    between atoms: _206  and  _209
REMARK   82  A    between atoms: _209  and  _210
REMARK   83  A    between atoms: _212  and  _214
REMARK   84  A    between atoms: _214  and  _215
REMARK   85  A    between atoms: _217  and  _219
REMARK   86  A    between atoms: _219  and  _220
REMARK   87  A    between atoms: _219  and  _222
REMARK   88  A    between atoms: _222  and  _223
REMARK   89  A    between atoms: _228  and  _230
REMARK   90  A    between atoms: _230  and  _231
REMARK   91  A    between atoms: _230  and  _233
REMARK   92  A    between atoms: _233  and  _234
REMARK   93  A    between atoms: _239  and  _241
REMARK   94  A    between atoms: _241  and  _242
REMARK   95  A    between atoms: _241  and  _244
REMARK   96  A    between atoms: _244  and  _245
REMARK   97  A    between atoms: _251  and  _253
REMARK   98  A    between atoms: _253  and  _254
REMARK   99  A    between atoms: _253  and  _256
REMARK                            x       y       z     vdW  Elec       q    Type
REMARK                         _______ _______ _______ _____ _____    ______ ____
ROOT
ATOM      1  O   HOH     1      16.330 -52.054   7.883  0.00  0.00    +0.000 OA
ENDROOT
TORSDOF 0
REMARK  Name = ../refined-set-2016/1det/1det_pocket.pdb
REMARK  99 active torsions:
REMARK  status: ('A' for Active; 'I' for Inactive)
REMARK    1  A    between atoms: _1  and  _3
REMARK    2  A    between atoms: _3  and  _4
REMARK    3  A    between atoms: _3  and  _6
REMARK    4  A    between atoms: _6  and  _7
REMARK    5  A    between atoms: _12  and  _14
REMARK    6  A    between atoms: _14  and  _15
REMARK    7  A    between atoms: _14  and  _17
REMARK    8  A    between atoms: _17  and  _18
REMARK    9  A    between atoms: _20  and  _22
REMARK   10  A    between atoms: _22  and  _23
REMARK   11  A    between atoms: _22  and  _25
REMARK   12  A    between atoms: _25  and  _26
REMARK   13  A    between atoms: _31  and  _32
REMARK   14  A    between atoms: _34  and  _36
REMARK   15  A    between atoms: _36  and  _37
REMARK   16  A    between atoms: _36  and  _39
REMARK   17  A    between atoms: _39  and  _40
REMARK   18  A    between atoms: _45  and  _47
REMARK   19  A    between atoms: _47  and  _48
REMARK   20  A    between atoms: _47  and  _50
REMARK   21  A    between atoms: _50  and  _51
REMARK   22  A    between atoms: _51  and  _52
REMARK   23  A    between atoms: _52  and  _53
REMARK   24  A    between atoms: _53  and  _54
REMARK   25  A    between atoms: _58  and  _60
REMARK   26  A    between atoms: _60  and  _61
REMARK   27  A    between atoms: _60  and  _63
REMARK   28  A    between atoms: _63  and  _64
REMARK   29  A    between atoms: _69  and  _70
REMARK   30  A    between atoms: _72  and  _74
REMARK   31  A    between atoms: _74  and  _75
REMARK   32  A    between atoms: _74  and  _77
REMARK   33  A    between atoms: _77  and  _78
REMARK   34  A    between atoms: _83  and  _85
REMARK   35  A    between atoms: _85  and  _86
REMARK   36  A    between atoms: _85  and  _88
REMARK   37  A    between atoms: _88  and  _89
REMARK   38  A    between atoms: _94  and  _96
REMARK   39  A    between atoms: _96  and  _97
REMARK   40  A    between atoms: _96  and  _99
REMARK   41  A    between atoms: _99  and  _100
REMARK   42  A    between atoms: _105  and  _106
REMARK   43  A    between atoms: _108  and  _110
REMARK   44  A    between atoms: _110  and  _111
REMARK   45  A    between atoms: _110  and  _113
REMARK   46  A    between atoms: _113  and  _114
REMARK   47  A    between atoms: _114  and  _115
REMARK   48  A    between atoms: _118  and  _120
REMARK   49  A    between atoms: _120  and  _121
REMARK   50  A    between atoms: _123  and  _125
REMARK   51  A    between atoms: _125  and  _126
REMARK   52  A    between atoms: _125  and  _128
REMARK   53  A    between atoms: _128  and  _129
REMARK   54  A    between atoms: _135  and  _137
REMARK   55  A    between atoms: _137  and  _138
REMARK   56  A    between atoms: _137  and  _140
REMARK   57  A    between atoms: _140  and  _141
REMARK   58  A    between atoms: _147  and  _149
REMARK   59  A    between atoms: _149  and  _150
REMARK   60  A    between atoms: _149  and  _152
REMARK   61  A    between atoms: _152  and  _153
REMARK   62  A    between atoms: _158  and  _159
REMARK   63  A    between atoms: _161  and  _163
REMARK   64  A    between atoms: _163  and  _164
REMARK   65  A    between atoms: _163  and  _166
REMARK   66  A    between atoms: _166  and  _167
REMARK   67  A    between atoms: _167  and  _168
REMARK   68  A    between atoms: _168  and  _169
REMARK   69  A    between atoms: _178  and  _180
REMARK   70  A    between atoms: _180  and  _181
REMARK   71  A    between atoms: _180  and  _183
REMARK   72  A    between atoms: _183  and  _184
REMARK   73  A    between atoms: _187  and  _189
REMARK   74  A    between atoms: _189  and  _190
REMARK   75  A    between atoms: _189  and  _192
REMARK   76  A    between atoms: _192  and  _193
REMARK   77  A    between atoms: _198  and  _200
REMARK   78  A    between atoms: _200  and  _201
REMARK   79  A    between atoms: _204  and  _206
REMARK   80  A    between atoms: _206  and  _207
REMARK   81  A    between atoms: _206  and  _209
REMARK   82  A    between atoms: _209  and  _210
REMARK   83  A    between atoms: _212  and  _214
REMARK   84  A    between atoms: _214  and  _215
REMARK   85  A    between atoms: _217  and  _219
REMARK   86  A    between atoms: _219  and  _220
REMARK   87  A    between atoms: _219  and  _222
REMARK   88  A    between atoms: _222  and  _223
REMARK   89  A    between atoms: _228  and  _230
REMARK   90  A    between atoms: _230  and  _231
REMARK   91  A    between atoms: _230  and  _233
REMARK   92  A    between atoms: _233  and  _234
REMARK   93  A    between atoms: _239  and  _241
REMARK   94  A    between atoms: _241  and  _242
REMARK   95  A    between atoms: _241  and  _244
REMARK   96  A    between atoms: _244  and  _245
REMARK   97  A    between atoms: _251  and  _253
REMARK   98  A    between atoms: _253  and  _254
REMARK   99  A    between atoms: _253  and  _256
REMARK                            x       y       z     vdW  Elec       q    Type
REMARK                         _______ _______ _______ _____ _____    ______ ____
ROOT
ATOM      1  O   HOH     1      24.047 -40.980   6.763  0.00  0.00    +0.000 OA
ENDROOT
TORSDOF 0
REMARK  Name = ../refined-set-2016/1det/1det_pocket.pdb
REMARK  99 active torsions:
REMARK  status: ('A' for Active; 'I' for Inactive)
REMARK    1  A    between atoms: _1  and  _3
REMARK    2  A    between atoms: _3  and  _4
REMARK    3  A    between atoms: _3  and  _6
REMARK    4  A    between atoms: _6  and  _7
REMARK    5  A    between atoms: _12  and  _14
REMARK    6  A    between atoms: _14  and  _15
REMARK    7  A    between atoms: _14  and  _17
REMARK    8  A    between atoms: _17  and  _18
REMARK    9  A    between atoms: _20  and  _22
REMARK   10  A    between atoms: _22  and  _23
REMARK   11  A    between atoms: _22  and  _25
REMARK   12  A    between atoms: _25  and  _26
REMARK   13  A    between atoms: _31  and  _32
REMARK   14  A    between atoms: _34  and  _36
REMARK   15  A    between atoms: _36  and  _37
REMARK   16  A    between atoms: _36  and  _39
REMARK   17  A    between atoms: _39  and  _40
REMARK   18  A    between atoms: _45  and  _47
REMARK   19  A    between atoms: _47  and  _48
REMARK   20  A    between atoms: _47  and  _50
REMARK   21  A    between atoms: _50  and  _51
REMARK   22  A    between atoms: _51  and  _52
REMARK   23  A    between atoms: _52  and  _53
REMARK   24  A    between atoms: _53  and  _54
REMARK   25  A    between atoms: _58  and  _60
REMARK   26  A    between atoms: _60  and  _61
REMARK   27  A    between atoms: _60  and  _63
REMARK   28  A    between atoms: _63  and  _64
REMARK   29  A    between atoms: _69  and  _70
REMARK   30  A    between atoms: _72  and  _74
REMARK   31  A    between atoms: _74  and  _75
REMARK   32  A    between atoms: _74  and  _77
REMARK   33  A    between atoms: _77  and  _78
REMARK   34  A    between atoms: _83  and  _85
REMARK   35  A    between atoms: _85  and  _86
REMARK   36  A    between atoms: _85  and  _88
REMARK   37  A    between atoms: _88  and  _89
REMARK   38  A    between atoms: _94  and  _96
REMARK   39  A    between atoms: _96  and  _97
REMARK   40  A    between atoms: _96  and  _99
REMARK   41  A    between atoms: _99  and  _100
REMARK   42  A    between atoms: _105  and  _106
REMARK   43  A    between atoms: _108  and  _110
REMARK   44  A    between atoms: _110  and  _111
REMARK   45  A    between atoms: _110  and  _113
REMARK   46  A    between atoms: _113  and  _114
REMARK   47  A    between atoms: _114  and  _115
REMARK   48  A    between atoms: _118  and  _120
REMARK   49  A    between atoms: _120  and  _121
REMARK   50  A    between atoms: _123  and  _125
REMARK   51  A    between atoms: _125  and  _126
REMARK   52  A    between atoms: _125  and  _128
REMARK   53  A    between atoms: _128  and  _129
REMARK   54  A    between atoms: _135  and  _137
REMARK   55  A    between atoms: _137  and  _138
REMARK   56  A    between atoms: _137  and  _140
REMARK   57  A    between atoms: _140  and  _141
REMARK   58  A    between atoms: _147  and  _149
REMARK   59  A    between atoms: _149  and  _150
REMARK   60  A    between atoms: _149  and  _152
REMARK   61  A    between atoms: _152  and  _153
REMARK   62  A    between atoms: _158  and  _159
REMARK   63  A    between atoms: _161  and  _163
REMARK   64  A    between atoms: _163  and  _164
REMARK   65  A    between atoms: _163  and  _166
REMARK   66  A    between atoms: _166  and  _167
REMARK   67  A    between atoms: _167  and  _168
REMARK   68  A    between atoms: _168  and  _169
REMARK   69  A    between atoms: _178  and  _180
REMARK   70  A    between atoms: _180  and  _181
REMARK   71  A    between atoms: _180  and  _183
REMARK   72  A    between atoms: _183  and  _184
REMARK   73  A    between atoms: _187  and  _189
REMARK   74  A    between atoms: _189  and  _190
REMARK   75  A    between atoms: _189  and  _192
REMARK   76  A    between atoms: _192  and  _193
REMARK   77  A    between atoms: _198  and  _200
REMARK   78  A    between atoms: _200  and  _201
REMARK   79  A    between atoms: _204  and  _206
REMARK   80  A    between atoms: _206  and  _207
REMARK   81  A    between atoms: _206  and  _209
REMARK   82  A    between atoms: _209  and  _210
REMARK   83  A    between atoms: _212  and  _214
REMARK   84  A    between atoms: _214  and  _215
REMARK   85  A    between atoms: _217  and  _219
REMARK   86  A    between atoms: _219  and  _220
REMARK   87  A    between atoms: _219  and  _222
REMARK   88  A    between atoms: _222  and  _223
REMARK   89  A    between atoms: _228  and  _230
REMARK   90  A    between atoms: _230  and  _231
REMARK   91  A    between atoms: _230  and  _233
REMARK   92  A    between atoms: _233  and  _234
REMARK   93  A    between atoms: _239  and  _241
REMARK   94  A    between atoms: _241  and  _242
REMARK   95  A    between atoms: _241  and  _244
REMARK   96  A    between atoms: _244  and  _245
REMARK   97  A    between atoms: _251  and  _253
REMARK   98  A    between atoms: _253  and  _254
REMARK   99  A    between atoms: _253  and  _256
REMARK                            x       y       z     vdW  Elec       q    Type
REMARK                         _______ _______ _______ _____ _____    ______ ____
ROOT
ATOM      1  O   HOH     1      19.955 -49.900   5.081  0.00  0.00    +0.000 OA
ENDROOT
TORSDOF 0
REMARK  Name = ../refined-set-2016/1det/1det_pocket.pdb
REMARK  99 active torsions:
REMARK  status: ('A' for Active; 'I' for Inactive)
REMARK    1  A    between atoms: _1  and  _3
REMARK    2  A    between atoms: _3  and  _4
REMARK    3  A    between atoms: _3  and  _6
REMARK    4  A    between atoms: _6  and  _7
REMARK    5  A    between atoms: _12  and  _14
REMARK    6  A    between atoms: _14  and  _15
REMARK    7  A    between atoms: _14  and  _17
REMARK    8  A    between atoms: _17  and  _18
REMARK    9  A    between atoms: _20  and  _22
REMARK   10  A    between atoms: _22  and  _23
REMARK   11  A    between atoms: _22  and  _25
REMARK   12  A    between atoms: _25  and  _26
REMARK   13  A    between atoms: _31  and  _32
REMARK   14  A    between atoms: _34  and  _36
REMARK   15  A    between atoms: _36  and  _37
REMARK   16  A    between atoms: _36  and  _39
REMARK   17  A    between atoms: _39  and  _40
REMARK   18  A    between atoms: _45  and  _47
REMARK   19  A    between atoms: _47  and  _48
REMARK   20  A    between atoms: _47  and  _50
REMARK   21  A    between atoms: _50  and  _51
REMARK   22  A    between atoms: _51  and  _52
REMARK   23  A    between atoms: _52  and  _53
REMARK   24  A    between atoms: _53  and  _54
REMARK   25  A    between atoms: _58  and  _60
REMARK   26  A    between atoms: _60  and  _61
REMARK   27  A    between atoms: _60  and  _63
REMARK   28  A    between atoms: _63  and  _64
REMARK   29  A    between atoms: _69  and  _70
REMARK   30  A    between atoms: _72  and  _74
REMARK   31  A    between atoms: _74  and  _75
REMARK   32  A    between atoms: _74  and  _77
REMARK   33  A    between atoms: _77  and  _78
REMARK   34  A    between atoms: _83  and  _85
REMARK   35  A    between atoms: _85  and  _86
REMARK   36  A    between atoms: _85  and  _88
REMARK   37  A    between atoms: _88  and  _89
REMARK   38  A    between atoms: _94  and  _96
REMARK   39  A    between atoms: _96  and  _97
REMARK   40  A    between atoms: _96  and  _99
REMARK   41  A    between atoms: _99  and  _100
REMARK   42  A    between atoms: _105  and  _106
REMARK   43  A    between atoms: _108  and  _110
REMARK   44  A    between atoms: _110  and  _111
REMARK   45  A    between atoms: _110  and  _113
REMARK   46  A    between atoms: _113  and  _114
REMARK   47  A    between atoms: _114  and  _115
REMARK   48  A    between atoms: _118  and  _120
REMARK   49  A    between atoms: _120  and  _121
REMARK   50  A    between atoms: _123  and  _125
REMARK   51  A    between atoms: _125  and  _126
REMARK   52  A    between atoms: _125  and  _128
REMARK   53  A    between atoms: _128  and  _129
REMARK   54  A    between atoms: _135  and  _137
REMARK   55  A    between atoms: _137  and  _138
REMARK   56  A    between atoms: _137  and  _140
REMARK   57  A    between atoms: _140  and  _141
REMARK   58  A    between atoms: _147  and  _149
REMARK   59  A    between atoms: _149  and  _150
REMARK   60  A    between atoms: _149  and  _152
REMARK   61  A    between atoms: _152  and  _153
REMARK   62  A    between atoms: _158  and  _159
REMARK   63  A    between atoms: _161  and  _163
REMARK   64  A    between atoms: _163  and  _164
REMARK   65  A    between atoms: _163  and  _166
REMARK   66  A    between atoms: _166  and  _167
REMARK   67  A    between atoms: _167  and  _168
REMARK   68  A    between atoms: _168  and  _169
REMARK   69  A    between atoms: _178  and  _180
REMARK   70  A    between atoms: _180  and  _181
REMARK   71  A    between atoms: _180  and  _183
REMARK   72  A    between atoms: _183  and  _184
REMARK   73  A    between atoms: _187  and  _189
REMARK   74  A    between atoms: _189  and  _190
REMARK   75  A    between atoms: _189  and  _192
REMARK   76  A    between atoms: _192  and  _193
REMARK   77  A    between atoms: _198  and  _200
REMARK   78  A    between atoms: _200  and  _201
REMARK   79  A    between atoms: _204  and  _206
REMARK   80  A    between atoms: _206  and  _207
REMARK   81  A    between atoms: _206  and  _209
REMARK   82  A    between atoms: _209  and  _210
REMARK   83  A    between atoms: _212  and  _214
REMARK   84  A    between atoms: _214  and  _215
REMARK   85  A    between atoms: _217  and  _219
REMARK   86  A    between atoms: _219  and  _220
REMARK   87  A    between atoms: _219  and  _222
REMARK   88  A    between atoms: _222  and  _223
REMARK   89  A    between atoms: _228  and  _230
REMARK   90  A    between atoms: _230  and  _231
REMARK   91  A    between atoms: _230  and  _233
REMARK   92  A    between atoms: _233  and  _234
REMARK   93  A    between atoms: _239  and  _241
REMARK   94  A    between atoms: _241  and  _242
REMARK   95  A    between atoms: _241  and  _244
REMARK   96  A    between atoms: _244  and  _245
REMARK   97  A    between atoms: _251  and  _253
REMARK   98  A    between atoms: _253  and  _254
REMARK   99  A    between atoms: _253  and  _256
REMARK                            x       y       z     vdW  Elec       q    Type
REMARK                         _______ _______ _______ _____ _____    ______ ____
ROOT
ATOM      1  O   HOH     1      35.971 -46.112   4.485  0.00  0.00    +0.000 OA
ENDROOT
TORSDOF 0
REMARK  Name = ../refined-set-2016/1det/1det_pocket.pdb
REMARK  99 active torsions:
REMARK  status: ('A' for Active; 'I' for Inactive)
REMARK    1  A    between atoms: _1  and  _3
REMARK    2  A    between atoms: _3  and  _4
REMARK    3  A    between atoms: _3  and  _6
REMARK    4  A    between atoms: _6  and  _7
REMARK    5  A    between atoms: _12  and  _14
REMARK    6  A    between atoms: _14  and  _15
REMARK    7  A    between atoms: _14  and  _17
REMARK    8  A    between atoms: _17  and  _18
REMARK    9  A    between atoms: _20  and  _22
REMARK   10  A    between atoms: _22  and  _23
REMARK   11  A    between atoms: _22  and  _25
REMARK   12  A    between atoms: _25  and  _26
REMARK   13  A    between atoms: _31  and  _32
REMARK   14  A    between atoms: _34  and  _36
REMARK   15  A    between atoms: _36  and  _37
REMARK   16  A    between atoms: _36  and  _39
REMARK   17  A    between atoms: _39  and  _40
REMARK   18  A    between atoms: _45  and  _47
REMARK   19  A    between atoms: _47  and  _48
REMARK   20  A    between atoms: _47  and  _50
REMARK   21  A    between atoms: _50  and  _51
REMARK   22  A    between atoms: _51  and  _52
REMARK   23  A    between atoms: _52  and  _53
REMARK   24  A    between atoms: _53  and  _54
REMARK   25  A    between atoms: _58  and  _60
REMARK   26  A    between atoms: _60  and  _61
REMARK   27  A    between atoms: _60  and  _63
REMARK   28  A    between atoms: _63  and  _64
REMARK   29  A    between atoms: _69  and  _70
REMARK   30  A    between atoms: _72  and  _74
REMARK   31  A    between atoms: _74  and  _75
REMARK   32  A    between atoms: _74  and  _77
REMARK   33  A    between atoms: _77  and  _78
REMARK   34  A    between atoms: _83  and  _85
REMARK   35  A    between atoms: _85  and  _86
REMARK   36  A    between atoms: _85  and  _88
REMARK   37  A    between atoms: _88  and  _89
REMARK   38  A    between atoms: _94  and  _96
REMARK   39  A    between atoms: _96  and  _97
REMARK   40  A    between atoms: _96  and  _99
REMARK   41  A    between atoms: _99  and  _100
REMARK   42  A    between atoms: _105  and  _106
REMARK   43  A    between atoms: _108  and  _110
REMARK   44  A    between atoms: _110  and  _111
REMARK   45  A    between atoms: _110  and  _113
REMARK   46  A    between atoms: _113  and  _114
REMARK   47  A    between atoms: _114  and  _115
REMARK   48  A    between atoms: _118  and  _120
REMARK   49  A    between atoms: _120  and  _121
REMARK   50  A    between atoms: _123  and  _125
REMARK   51  A    between atoms: _125  and  _126
REMARK   52  A    between atoms: _125  and  _128
REMARK   53  A    between atoms: _128  and  _129
REMARK   54  A    between atoms: _135  and  _137
REMARK   55  A    between atoms: _137  and  _138
REMARK   56  A    between atoms: _137  and  _140
REMARK   57  A    between atoms: _140  and  _141
REMARK   58  A    between atoms: _147  and  _149
REMARK   59  A    between atoms: _149  and  _150
REMARK   60  A    between atoms: _149  and  _152
REMARK   61  A    between atoms: _152  and  _153
REMARK   62  A    between atoms: _158  and  _159
REMARK   63  A    between atoms: _161  and  _163
REMARK   64  A    between atoms: _163  and  _164
REMARK   65  A    between atoms: _163  and  _166
REMARK   66  A    between atoms: _166  and  _167
REMARK   67  A    between atoms: _167  and  _168
REMARK   68  A    between atoms: _168  and  _169
REMARK   69  A    between atoms: _178  and  _180
REMARK   70  A    between atoms: _180  and  _181
REMARK   71  A    between atoms: _180  and  _183
REMARK   72  A    between atoms: _183  and  _184
REMARK   73  A    between atoms: _187  and  _189
REMARK   74  A    between atoms: _189  and  _190
REMARK   75  A    between atoms: _189  and  _192
REMARK   76  A    between atoms: _192  and  _193
REMARK   77  A    between atoms: _198  and  _200
REMARK   78  A    between atoms: _200  and  _201
REMARK   79  A    between atoms: _204  and  _206
REMARK   80  A    between atoms: _206  and  _207
REMARK   81  A    between atoms: _206  and  _209
REMARK   82  A    between atoms: _209  and  _210
REMARK   83  A    between atoms: _212  and  _214
REMARK   84  A    between atoms: _214  and  _215
REMARK   85  A    between atoms: _217  and  _219
REMARK   86  A    between atoms: _219  and  _220
REMARK   87  A    between atoms: _219  and  _222
REMARK   88  A    between atoms: _222  and  _223
REMARK   89  A    between atoms: _228  and  _230
REMARK   90  A    between atoms: _230  and  _231
REMARK   91  A    between atoms: _230  and  _233
REMARK   92  A    between atoms: _233  and  _234
REMARK   93  A    between atoms: _239  and  _241
REMARK   94  A    between atoms: _241  and  _242
REMARK   95  A    between atoms: _241  and  _244
REMARK   96  A    between atoms: _244  and  _245
REMARK   97  A    between atoms: _251  and  _253
REMARK   98  A    between atoms: _253  and  _254
REMARK   99  A    between atoms: _253  and  _256
REMARK                            x       y       z     vdW  Elec       q    Type
REMARK                         _______ _______ _______ _____ _____    ______ ____
ROOT
ATOM      1  O   HOH     1      21.330 -40.141   7.993  0.00  0.00    +0.000 OA
ENDROOT
TORSDOF 0
REMARK  Name = ../refined-set-2016/1det/1det_pocket.pdb
REMARK  99 active torsions:
REMARK  status: ('A' for Active; 'I' for Inactive)
REMARK    1  A    between atoms: _1  and  _3
REMARK    2  A    between atoms: _3  and  _4
REMARK    3  A    between atoms: _3  and  _6
REMARK    4  A    between atoms: _6  and  _7
REMARK    5  A    between atoms: _12  and  _14
REMARK    6  A    between atoms: _14  and  _15
REMARK    7  A    between atoms: _14  and  _17
REMARK    8  A    between atoms: _17  and  _18
REMARK    9  A    between atoms: _20  and  _22
REMARK   10  A    between atoms: _22  and  _23
REMARK   11  A    between atoms: _22  and  _25
REMARK   12  A    between atoms: _25  and  _26
REMARK   13  A    between atoms: _31  and  _32
REMARK   14  A    between atoms: _34  and  _36
REMARK   15  A    between atoms: _36  and  _37
REMARK   16  A    between atoms: _36  and  _39
REMARK   17  A    between atoms: _39  and  _40
REMARK   18  A    between atoms: _45  and  _47
REMARK   19  A    between atoms: _47  and  _48
REMARK   20  A    between atoms: _47  and  _50
REMARK   21  A    between atoms: _50  and  _51
REMARK   22  A    between atoms: _51  and  _52
REMARK   23  A    between atoms: _52  and  _53
REMARK   24  A    between atoms: _53  and  _54
REMARK   25  A    between atoms: _58  and  _60
REMARK   26  A    between atoms: _60  and  _61
REMARK   27  A    between atoms: _60  and  _63
REMARK   28  A    between atoms: _63  and  _64
REMARK   29  A    between atoms: _69  and  _70
REMARK   30  A    between atoms: _72  and  _74
REMARK   31  A    between atoms: _74  and  _75
REMARK   32  A    between atoms: _74  and  _77
REMARK   33  A    between atoms: _77  and  _78
REMARK   34  A    between atoms: _83  and  _85
REMARK   35  A    between atoms: _85  and  _86
REMARK   36  A    between atoms: _85  and  _88
REMARK   37  A    between atoms: _88  and  _89
REMARK   38  A    between atoms: _94  and  _96
REMARK   39  A    between atoms: _96  and  _97
REMARK   40  A    between atoms: _96  and  _99
REMARK   41  A    between atoms: _99  and  _100
REMARK   42  A    between atoms: _105  and  _106
REMARK   43  A    between atoms: _108  and  _110
REMARK   44  A    between atoms: _110  and  _111
REMARK   45  A    between atoms: _110  and  _113
REMARK   46  A    between atoms: _113  and  _114
REMARK   47  A    between atoms: _114  and  _115
REMARK   48  A    between atoms: _118  and  _120
REMARK   49  A    between atoms: _120  and  _121
REMARK   50  A    between atoms: _123  and  _125
REMARK   51  A    between atoms: _125  and  _126
REMARK   52  A    between atoms: _125  and  _128
REMARK   53  A    between atoms: _128  and  _129
REMARK   54  A    between atoms: _135  and  _137
REMARK   55  A    between atoms: _137  and  _138
REMARK   56  A    between atoms: _137  and  _140
REMARK   57  A    between atoms: _140  and  _141
REMARK   58  A    between atoms: _147  and  _149
REMARK   59  A    between atoms: _149  and  _150
REMARK   60  A    between atoms: _149  and  _152
REMARK   61  A    between atoms: _152  and  _153
REMARK   62  A    between atoms: _158  and  _159
REMARK   63  A    between atoms: _161  and  _163
REMARK   64  A    between atoms: _163  and  _164
REMARK   65  A    between atoms: _163  and  _166
REMARK   66  A    between atoms: _166  and  _167
REMARK   67  A    between atoms: _167  and  _168
REMARK   68  A    between atoms: _168  and  _169
REMARK   69  A    between atoms: _178  and  _180
REMARK   70  A    between atoms: _180  and  _181
REMARK   71  A    between atoms: _180  and  _183
REMARK   72  A    between atoms: _183  and  _184
REMARK   73  A    between atoms: _187  and  _189
REMARK   74  A    between atoms: _189  and  _190
REMARK   75  A    between atoms: _189  and  _192
REMARK   76  A    between atoms: _192  and  _193
REMARK   77  A    between atoms: _198  and  _200
REMARK   78  A    between atoms: _200  and  _201
REMARK   79  A    between atoms: _204  and  _206
REMARK   80  A    between atoms: _206  and  _207
REMARK   81  A    between atoms: _206  and  _209
REMARK   82  A    between atoms: _209  and  _210
REMARK   83  A    between atoms: _212  and  _214
REMARK   84  A    between atoms: _214  and  _215
REMARK   85  A    between atoms: _217  and  _219
REMARK   86  A    between atoms: _219  and  _220
REMARK   87  A    between atoms: _219  and  _222
REMARK   88  A    between atoms: _222  and  _223
REMARK   89  A    between atoms: _228  and  _230
REMARK   90  A    between atoms: _230  and  _231
REMARK   91  A    between atoms: _230  and  _233
REMARK   92  A    between atoms: _233  and  _234
REMARK   93  A    between atoms: _239  and  _241
REMARK   94  A    between atoms: _241  and  _242
REMARK   95  A    between atoms: _241  and  _244
REMARK   96  A    between atoms: _244  and  _245
REMARK   97  A    between atoms: _251  and  _253
REMARK   98  A    between atoms: _253  and  _254
REMARK   99  A    between atoms: _253  and  _256
REMARK                            x       y       z     vdW  Elec       q    Type
REMARK                         _______ _______ _______ _____ _____    ______ ____
ROOT
ATOM      1  O   HOH     1      16.946 -44.919   5.505  0.00  0.00    +0.000 OA
ENDROOT
TORSDOF 0
REMARK  Name = ../refined-set-2016/1det/1det_pocket.pdb
REMARK  99 active torsions:
REMARK  status: ('A' for Active; 'I' for Inactive)
REMARK    1  A    between atoms: _1  and  _3
REMARK    2  A    between atoms: _3  and  _4
REMARK    3  A    between atoms: _3  and  _6
REMARK    4  A    between atoms: _6  and  _7
REMARK    5  A    between atoms: _12  and  _14
REMARK    6  A    between atoms: _14  and  _15
REMARK    7  A    between atoms: _14  and  _17
REMARK    8  A    between atoms: _17  and  _18
REMARK    9  A    between atoms: _20  and  _22
REMARK   10  A    between atoms: _22  and  _23
REMARK   11  A    between atoms: _22  and  _25
REMARK   12  A    between atoms: _25  and  _26
REMARK   13  A    between atoms: _31  and  _32
REMARK   14  A    between atoms: _34  and  _36
REMARK   15  A    between atoms: _36  and  _37
REMARK   16  A    between atoms: _36  and  _39
REMARK   17  A    between atoms: _39  and  _40
REMARK   18  A    between atoms: _45  and  _47
REMARK   19  A    between atoms: _47  and  _48
REMARK   20  A    between atoms: _47  and  _50
REMARK   21  A    between atoms: _50  and  _51
REMARK   22  A    between atoms: _51  and  _52
REMARK   23  A    between atoms: _52  and  _53
REMARK   24  A    between atoms: _53  and  _54
REMARK   25  A    between atoms: _58  and  _60
REMARK   26  A    between atoms: _60  and  _61
REMARK   27  A    between atoms: _60  and  _63
REMARK   28  A    between atoms: _63  and  _64
REMARK   29  A    between atoms: _69  and  _70
REMARK   30  A    between atoms: _72  and  _74
REMARK   31  A    between atoms: _74  and  _75
REMARK   32  A    between atoms: _74  and  _77
REMARK   33  A    between atoms: _77  and  _78
REMARK   34  A    between atoms: _83  and  _85
REMARK   35  A    between atoms: _85  and  _86
REMARK   36  A    between atoms: _85  and  _88
REMARK   37  A    between atoms: _88  and  _89
REMARK   38  A    between atoms: _94  and  _96
REMARK   39  A    between atoms: _96  and  _97
REMARK   40  A    between atoms: _96  and  _99
REMARK   41  A    between atoms: _99  and  _100
REMARK   42  A    between atoms: _105  and  _106
REMARK   43  A    between atoms: _108  and  _110
REMARK   44  A    between atoms: _110  and  _111
REMARK   45  A    between atoms: _110  and  _113
REMARK   46  A    between atoms: _113  and  _114
REMARK   47  A    between atoms: _114  and  _115
REMARK   48  A    between atoms: _118  and  _120
REMARK   49  A    between atoms: _120  and  _121
REMARK   50  A    between atoms: _123  and  _125
REMARK   51  A    between atoms: _125  and  _126
REMARK   52  A    between atoms: _125  and  _128
REMARK   53  A    between atoms: _128  and  _129
REMARK   54  A    between atoms: _135  and  _137
REMARK   55  A    between atoms: _137  and  _138
REMARK   56  A    between atoms: _137  and  _140
REMARK   57  A    between atoms: _140  and  _141
REMARK   58  A    between atoms: _147  and  _149
REMARK   59  A    between atoms: _149  and  _150
REMARK   60  A    between atoms: _149  and  _152
REMARK   61  A    between atoms: _152  and  _153
REMARK   62  A    between atoms: _158  and  _159
REMARK   63  A    between atoms: _161  and  _163
REMARK   64  A    between atoms: _163  and  _164
REMARK   65  A    between atoms: _163  and  _166
REMARK   66  A    between atoms: _166  and  _167
REMARK   67  A    between atoms: _167  and  _168
REMARK   68  A    between atoms: _168  and  _169
REMARK   69  A    between atoms: _178  and  _180
REMARK   70  A    between atoms: _180  and  _181
REMARK   71  A    between atoms: _180  and  _183
REMARK   72  A    between atoms: _183  and  _184
REMARK   73  A    between atoms: _187  and  _189
REMARK   74  A    between atoms: _189  and  _190
REMARK   75  A    between atoms: _189  and  _192
REMARK   76  A    between atoms: _192  and  _193
REMARK   77  A    between atoms: _198  and  _200
REMARK   78  A    between atoms: _200  and  _201
REMARK   79  A    between atoms: _204  and  _206
REMARK   80  A    between atoms: _206  and  _207
REMARK   81  A    between atoms: _206  and  _209
REMARK   82  A    between atoms: _209  and  _210
REMARK   83  A    between atoms: _212  and  _214
REMARK   84  A    between atoms: _214  and  _215
REMARK   85  A    between atoms: _217  and  _219
REMARK   86  A    between atoms: _219  and  _220
REMARK   87  A    between atoms: _219  and  _222
REMARK   88  A    between atoms: _222  and  _223
REMARK   89  A    between atoms: _228  and  _230
REMARK   90  A    between atoms: _230  and  _231
REMARK   91  A    between atoms: _230  and  _233
REMARK   92  A    between atoms: _233  and  _234
REMARK   93  A    between atoms: _239  and  _241
REMARK   94  A    between atoms: _241  and  _242
REMARK   95  A    between atoms: _241  and  _244
REMARK   96  A    between atoms: _244  and  _245
REMARK   97  A    between atoms: _251  and  _253
REMARK   98  A    between atoms: _253  and  _254
REMARK   99  A    between atoms: _253  and  _256
REMARK                            x       y       z     vdW  Elec       q    Type
REMARK                         _______ _______ _______ _____ _____    ______ ____
ROOT
ATOM      1  O   HOH     1      15.866 -49.743   5.826  0.00  0.00    +0.000 OA
ENDROOT
TORSDOF 0
REMARK  Name = ../refined-set-2016/1det/1det_pocket.pdb
REMARK  99 active torsions:
REMARK  status: ('A' for Active; 'I' for Inactive)
REMARK    1  A    between atoms: _1  and  _3
REMARK    2  A    between atoms: _3  and  _4
REMARK    3  A    between atoms: _3  and  _6
REMARK    4  A    between atoms: _6  and  _7
REMARK    5  A    between atoms: _12  and  _14
REMARK    6  A    between atoms: _14  and  _15
REMARK    7  A    between atoms: _14  and  _17
REMARK    8  A    between atoms: _17  and  _18
REMARK    9  A    between atoms: _20  and  _22
REMARK   10  A    between atoms: _22  and  _23
REMARK   11  A    between atoms: _22  and  _25
REMARK   12  A    between atoms: _25  and  _26
REMARK   13  A    between atoms: _31  and  _32
REMARK   14  A    between atoms: _34  and  _36
REMARK   15  A    between atoms: _36  and  _37
REMARK   16  A    between atoms: _36  and  _39
REMARK   17  A    between atoms: _39  and  _40
REMARK   18  A    between atoms: _45  and  _47
REMARK   19  A    between atoms: _47  and  _48
REMARK   20  A    between atoms: _47  and  _50
REMARK   21  A    between atoms: _50  and  _51
REMARK   22  A    between atoms: _51  and  _52
REMARK   23  A    between atoms: _52  and  _53
REMARK   24  A    between atoms: _53  and  _54
REMARK   25  A    between atoms: _58  and  _60
REMARK   26  A    between atoms: _60  and  _61
REMARK   27  A    between atoms: _60  and  _63
REMARK   28  A    between atoms: _63  and  _64
REMARK   29  A    between atoms: _69  and  _70
REMARK   30  A    between atoms: _72  and  _74
REMARK   31  A    between atoms: _74  and  _75
REMARK   32  A    between atoms: _74  and  _77
REMARK   33  A    between atoms: _77  and  _78
REMARK   34  A    between atoms: _83  and  _85
REMARK   35  A    between atoms: _85  and  _86
REMARK   36  A    between atoms: _85  and  _88
REMARK   37  A    between atoms: _88  and  _89
REMARK   38  A    between atoms: _94  and  _96
REMARK   39  A    between atoms: _96  and  _97
REMARK   40  A    between atoms: _96  and  _99
REMARK   41  A    between atoms: _99  and  _100
REMARK   42  A    between atoms: _105  and  _106
REMARK   43  A    between atoms: _108  and  _110
REMARK   44  A    between atoms: _110  and  _111
REMARK   45  A    between atoms: _110  and  _113
REMARK   46  A    between atoms: _113  and  _114
REMARK   47  A    between atoms: _114  and  _115
REMARK   48  A    between atoms: _118  and  _120
REMARK   49  A    between atoms: _120  and  _121
REMARK   50  A    between atoms: _123  and  _125
REMARK   51  A    between atoms: _125  and  _126
REMARK   52  A    between atoms: _125  and  _128
REMARK   53  A    between atoms: _128  and  _129
REMARK   54  A    between atoms: _135  and  _137
REMARK   55  A    between atoms: _137  and  _138
REMARK   56  A    between atoms: _137  and  _140
REMARK   57  A    between atoms: _140  and  _141
REMARK   58  A    between atoms: _147  and  _149
REMARK   59  A    between atoms: _149  and  _150
REMARK   60  A    between atoms: _149  and  _152
REMARK   61  A    between atoms: _152  and  _153
REMARK   62  A    between atoms: _158  and  _159
REMARK   63  A    between atoms: _161  and  _163
REMARK   64  A    between atoms: _163  and  _164
REMARK   65  A    between atoms: _163  and  _166
REMARK   66  A    between atoms: _166  and  _167
REMARK   67  A    between atoms: _167  and  _168
REMARK   68  A    between atoms: _168  and  _169
REMARK   69  A    between atoms: _178  and  _180
REMARK   70  A    between atoms: _180  and  _181
REMARK   71  A    between atoms: _180  and  _183
REMARK   72  A    between atoms: _183  and  _184
REMARK   73  A    between atoms: _187  and  _189
REMARK   74  A    between atoms: _189  and  _190
REMARK   75  A    between atoms: _189  and  _192
REMARK   76  A    between atoms: _192  and  _193
REMARK   77  A    between atoms: _198  and  _200
REMARK   78  A    between atoms: _200  and  _201
REMARK   79  A    between atoms: _204  and  _206
REMARK   80  A    between atoms: _206  and  _207
REMARK   81  A    between atoms: _206  and  _209
REMARK   82  A    between atoms: _209  and  _210
REMARK   83  A    between atoms: _212  and  _214
REMARK   84  A    between atoms: _214  and  _215
REMARK   85  A    between atoms: _217  and  _219
REMARK   86  A    between atoms: _219  and  _220
REMARK   87  A    between atoms: _219  and  _222
REMARK   88  A    between atoms: _222  and  _223
REMARK   89  A    between atoms: _228  and  _230
REMARK   90  A    between atoms: _230  and  _231
REMARK   91  A    between atoms: _230  and  _233
REMARK   92  A    between atoms: _233  and  _234
REMARK   93  A    between atoms: _239  and  _241
REMARK   94  A    between atoms: _241  and  _242
REMARK   95  A    between atoms: _241  and  _244
REMARK   96  A    between atoms: _244  and  _245
REMARK   97  A    between atoms: _251  and  _253
REMARK   98  A    between atoms: _253  and  _254
REMARK   99  A    between atoms: _253  and  _256
REMARK                            x       y       z     vdW  Elec       q    Type
REMARK                         _______ _______ _______ _____ _____    ______ ____
ROOT
ATOM      1  O   HOH     1      19.983 -42.563   5.685  0.00  0.00    +0.000 OA
ENDROOT
TORSDOF 0
REMARK  Name = ../refined-set-2016/1det/1det_pocket.pdb
REMARK  99 active torsions:
REMARK  status: ('A' for Active; 'I' for Inactive)
REMARK    1  A    between atoms: _1  and  _3
REMARK    2  A    between atoms: _3  and  _4
REMARK    3  A    between atoms: _3  and  _6
REMARK    4  A    between atoms: _6  and  _7
REMARK    5  A    between atoms: _12  and  _14
REMARK    6  A    between atoms: _14  and  _15
REMARK    7  A    between atoms: _14  and  _17
REMARK    8  A    between atoms: _17  and  _18
REMARK    9  A    between atoms: _20  and  _22
REMARK   10  A    between atoms: _22  and  _23
REMARK   11  A    between atoms: _22  and  _25
REMARK   12  A    between atoms: _25  and  _26
REMARK   13  A    between atoms: _31  and  _32
REMARK   14  A    between atoms: _34  and  _36
REMARK   15  A    between atoms: _36  and  _37
REMARK   16  A    between atoms: _36  and  _39
REMARK   17  A    between atoms: _39  and  _40
REMARK   18  A    between atoms: _45  and  _47
REMARK   19  A    between atoms: _47  and  _48
REMARK   20  A    between atoms: _47  and  _50
REMARK   21  A    between atoms: _50  and  _51
REMARK   22  A    between atoms: _51  and  _52
REMARK   23  A    between atoms: _52  and  _53
REMARK   24  A    between atoms: _53  and  _54
REMARK   25  A    between atoms: _58  and  _60
REMARK   26  A    between atoms: _60  and  _61
REMARK   27  A    between atoms: _60  and  _63
REMARK   28  A    between atoms: _63  and  _64
REMARK   29  A    between atoms: _69  and  _70
REMARK   30  A    between atoms: _72  and  _74
REMARK   31  A    between atoms: _74  and  _75
REMARK   32  A    between atoms: _74  and  _77
REMARK   33  A    between atoms: _77  and  _78
REMARK   34  A    between atoms: _83  and  _85
REMARK   35  A    between atoms: _85  and  _86
REMARK   36  A    between atoms: _85  and  _88
REMARK   37  A    between atoms: _88  and  _89
REMARK   38  A    between atoms: _94  and  _96
REMARK   39  A    between atoms: _96  and  _97
REMARK   40  A    between atoms: _96  and  _99
REMARK   41  A    between atoms: _99  and  _100
REMARK   42  A    between atoms: _105  and  _106
REMARK   43  A    between atoms: _108  and  _110
REMARK   44  A    between atoms: _110  and  _111
REMARK   45  A    between atoms: _110  and  _113
REMARK   46  A    between atoms: _113  and  _114
REMARK   47  A    between atoms: _114  and  _115
REMARK   48  A    between atoms: _118  and  _120
REMARK   49  A    between atoms: _120  and  _121
REMARK   50  A    between atoms: _123  and  _125
REMARK   51  A    between atoms: _125  and  _126
REMARK   52  A    between atoms: _125  and  _128
REMARK   53  A    between atoms: _128  and  _129
REMARK   54  A    between atoms: _135  and  _137
REMARK   55  A    between atoms: _137  and  _138
REMARK   56  A    between atoms: _137  and  _140
REMARK   57  A    between atoms: _140  and  _141
REMARK   58  A    between atoms: _147  and  _149
REMARK   59  A    between atoms: _149  and  _150
REMARK   60  A    between atoms: _149  and  _152
REMARK   61  A    between atoms: _152  and  _153
REMARK   62  A    between atoms: _158  and  _159
REMARK   63  A    between atoms: _161  and  _163
REMARK   64  A    between atoms: _163  and  _164
REMARK   65  A    between atoms: _163  and  _166
REMARK   66  A    between atoms: _166  and  _167
REMARK   67  A    between atoms: _167  and  _168
REMARK   68  A    between atoms: _168  and  _169
REMARK   69  A    between atoms: _178  and  _180
REMARK   70  A    between atoms: _180  and  _181
REMARK   71  A    between atoms: _180  and  _183
REMARK   72  A    between atoms: _183  and  _184
REMARK   73  A    between atoms: _187  and  _189
REMARK   74  A    between atoms: _189  and  _190
REMARK   75  A    between atoms: _189  and  _192
REMARK   76  A    between atoms: _192  and  _193
REMARK   77  A    between atoms: _198  and  _200
REMARK   78  A    between atoms: _200  and  _201
REMARK   79  A    between atoms: _204  and  _206
REMARK   80  A    between atoms: _206  and  _207
REMARK   81  A    between atoms: _206  and  _209
REMARK   82  A    between atoms: _209  and  _210
REMARK   83  A    between atoms: _212  and  _214
REMARK   84  A    between atoms: _214  and  _215
REMARK   85  A    between atoms: _217  and  _219
REMARK   86  A    between atoms: _219  and  _220
REMARK   87  A    between atoms: _219  and  _222
REMARK   88  A    between atoms: _222  and  _223
REMARK   89  A    between atoms: _228  and  _230
REMARK   90  A    between atoms: _230  and  _231
REMARK   91  A    between atoms: _230  and  _233
REMARK   92  A    between atoms: _233  and  _234
REMARK   93  A    between atoms: _239  and  _241
REMARK   94  A    between atoms: _241  and  _242
REMARK   95  A    between atoms: _241  and  _244
REMARK   96  A    between atoms: _244  and  _245
REMARK   97  A    between atoms: _251  and  _253
REMARK   98  A    between atoms: _253  and  _254
REMARK   99  A    between atoms: _253  and  _256
REMARK                            x       y       z     vdW  Elec       q    Type
REMARK                         _______ _______ _______ _____ _____    ______ ____
ROOT
ATOM      1  O   HOH     1      14.825 -48.544   3.046  0.00  0.00    +0.000 OA
ENDROOT
TORSDOF 0
REMARK  Name = ../refined-set-2016/1det/1det_pocket.pdb
REMARK  99 active torsions:
REMARK  status: ('A' for Active; 'I' for Inactive)
REMARK    1  A    between atoms: _1  and  _3
REMARK    2  A    between atoms: _3  and  _4
REMARK    3  A    between atoms: _3  and  _6
REMARK    4  A    between atoms: _6  and  _7
REMARK    5  A    between atoms: _12  and  _14
REMARK    6  A    between atoms: _14  and  _15
REMARK    7  A    between atoms: _14  and  _17
REMARK    8  A    between atoms: _17  and  _18
REMARK    9  A    between atoms: _20  and  _22
REMARK   10  A    between atoms: _22  and  _23
REMARK   11  A    between atoms: _22  and  _25
REMARK   12  A    between atoms: _25  and  _26
REMARK   13  A    between atoms: _31  and  _32
REMARK   14  A    between atoms: _34  and  _36
REMARK   15  A    between atoms: _36  and  _37
REMARK   16  A    between atoms: _36  and  _39
REMARK   17  A    between atoms: _39  and  _40
REMARK   18  A    between atoms: _45  and  _47
REMARK   19  A    between atoms: _47  and  _48
REMARK   20  A    between atoms: _47  and  _50
REMARK   21  A    between atoms: _50  and  _51
REMARK   22  A    between atoms: _51  and  _52
REMARK   23  A    between atoms: _52  and  _53
REMARK   24  A    between atoms: _53  and  _54
REMARK   25  A    between atoms: _58  and  _60
REMARK   26  A    between atoms: _60  and  _61
REMARK   27  A    between atoms: _60  and  _63
REMARK   28  A    between atoms: _63  and  _64
REMARK   29  A    between atoms: _69  and  _70
REMARK   30  A    between atoms: _72  and  _74
REMARK   31  A    between atoms: _74  and  _75
REMARK   32  A    between atoms: _74  and  _77
REMARK   33  A    between atoms: _77  and  _78
REMARK   34  A    between atoms: _83  and  _85
REMARK   35  A    between atoms: _85  and  _86
REMARK   36  A    between atoms: _85  and  _88
REMARK   37  A    between atoms: _88  and  _89
REMARK   38  A    between atoms: _94  and  _96
REMARK   39  A    between atoms: _96  and  _97
REMARK   40  A    between atoms: _96  and  _99
REMARK   41  A    between atoms: _99  and  _100
REMARK   42  A    between atoms: _105  and  _106
REMARK   43  A    between atoms: _108  and  _110
REMARK   44  A    between atoms: _110  and  _111
REMARK   45  A    between atoms: _110  and  _113
REMARK   46  A    between atoms: _113  and  _114
REMARK   47  A    between atoms: _114  and  _115
REMARK   48  A    between atoms: _118  and  _120
REMARK   49  A    between atoms: _120  and  _121
REMARK   50  A    between atoms: _123  and  _125
REMARK   51  A    between atoms: _125  and  _126
REMARK   52  A    between atoms: _125  and  _128
REMARK   53  A    between atoms: _128  and  _129
REMARK   54  A    between atoms: _135  and  _137
REMARK   55  A    between atoms: _137  and  _138
REMARK   56  A    between atoms: _137  and  _140
REMARK   57  A    between atoms: _140  and  _141
REMARK   58  A    between atoms: _147  and  _149
REMARK   59  A    between atoms: _149  and  _150
REMARK   60  A    between atoms: _149  and  _152
REMARK   61  A    between atoms: _152  and  _153
REMARK   62  A    between atoms: _158  and  _159
REMARK   63  A    between atoms: _161  and  _163
REMARK   64  A    between atoms: _163  and  _164
REMARK   65  A    between atoms: _163  and  _166
REMARK   66  A    between atoms: _166  and  _167
REMARK   67  A    between atoms: _167  and  _168
REMARK   68  A    between atoms: _168  and  _169
REMARK   69  A    between atoms: _178  and  _180
REMARK   70  A    between atoms: _180  and  _181
REMARK   71  A    between atoms: _180  and  _183
REMARK   72  A    between atoms: _183  and  _184
REMARK   73  A    between atoms: _187  and  _189
REMARK   74  A    between atoms: _189  and  _190
REMARK   75  A    between atoms: _189  and  _192
REMARK   76  A    between atoms: _192  and  _193
REMARK   77  A    between atoms: _198  and  _200
REMARK   78  A    between atoms: _200  and  _201
REMARK   79  A    between atoms: _204  and  _206
REMARK   80  A    between atoms: _206  and  _207
REMARK   81  A    between atoms: _206  and  _209
REMARK   82  A    between atoms: _209  and  _210
REMARK   83  A    between atoms: _212  and  _214
REMARK   84  A    between atoms: _214  and  _215
REMARK   85  A    between atoms: _217  and  _219
REMARK   86  A    between atoms: _219  and  _220
REMARK   87  A    between atoms: _219  and  _222
REMARK   88  A    between atoms: _222  and  _223
REMARK   89  A    between atoms: _228  and  _230
REMARK   90  A    between atoms: _230  and  _231
REMARK   91  A    between atoms: _230  and  _233
REMARK   92  A    between atoms: _233  and  _234
REMARK   93  A    between atoms: _239  and  _241
REMARK   94  A    between atoms: _241  and  _242
REMARK   95  A    between atoms: _241  and  _244
REMARK   96  A    between atoms: _244  and  _245
REMARK   97  A    between atoms: _251  and  _253
REMARK   98  A    between atoms: _253  and  _254
REMARK   99  A    between atoms: _253  and  _256
REMARK                            x       y       z     vdW  Elec       q    Type
REMARK                         _______ _______ _______ _____ _____    ______ ____
ROOT
ATOM      1  O   HOH     1      24.682 -40.450   3.557  0.00  0.00    +0.000 OA
ENDROOT
TORSDOF 0
REMARK  Name = ../refined-set-2016/1det/1det_pocket.pdb
REMARK  99 active torsions:
REMARK  status: ('A' for Active; 'I' for Inactive)
REMARK    1  A    between atoms: _1  and  _3
REMARK    2  A    between atoms: _3  and  _4
REMARK    3  A    between atoms: _3  and  _6
REMARK    4  A    between atoms: _6  and  _7
REMARK    5  A    between atoms: _12  and  _14
REMARK    6  A    between atoms: _14  and  _15
REMARK    7  A    between atoms: _14  and  _17
REMARK    8  A    between atoms: _17  and  _18
REMARK    9  A    between atoms: _20  and  _22
REMARK   10  A    between atoms: _22  and  _23
REMARK   11  A    between atoms: _22  and  _25
REMARK   12  A    between atoms: _25  and  _26
REMARK   13  A    between atoms: _31  and  _32
REMARK   14  A    between atoms: _34  and  _36
REMARK   15  A    between atoms: _36  and  _37
REMARK   16  A    between atoms: _36  and  _39
REMARK   17  A    between atoms: _39  and  _40
REMARK   18  A    between atoms: _45  and  _47
REMARK   19  A    between atoms: _47  and  _48
REMARK   20  A    between atoms: _47  and  _50
REMARK   21  A    between atoms: _50  and  _51
REMARK   22  A    between atoms: _51  and  _52
REMARK   23  A    between atoms: _52  and  _53
REMARK   24  A    between atoms: _53  and  _54
REMARK   25  A    between atoms: _58  and  _60
REMARK   26  A    between atoms: _60  and  _61
REMARK   27  A    between atoms: _60  and  _63
REMARK   28  A    between atoms: _63  and  _64
REMARK   29  A    between atoms: _69  and  _70
REMARK   30  A    between atoms: _72  and  _74
REMARK   31  A    between atoms: _74  and  _75
REMARK   32  A    between atoms: _74  and  _77
REMARK   33  A    between atoms: _77  and  _78
REMARK   34  A    between atoms: _83  and  _85
REMARK   35  A    between atoms: _85  and  _86
REMARK   36  A    between atoms: _85  and  _88
REMARK   37  A    between atoms: _88  and  _89
REMARK   38  A    between atoms: _94  and  _96
REMARK   39  A    between atoms: _96  and  _97
REMARK   40  A    between atoms: _96  and  _99
REMARK   41  A    between atoms: _99  and  _100
REMARK   42  A    between atoms: _105  and  _106
REMARK   43  A    between atoms: _108  and  _110
REMARK   44  A    between atoms: _110  and  _111
REMARK   45  A    between atoms: _110  and  _113
REMARK   46  A    between atoms: _113  and  _114
REMARK   47  A    between atoms: _114  and  _115
REMARK   48  A    between atoms: _118  and  _120
REMARK   49  A    between atoms: _120  and  _121
REMARK   50  A    between atoms: _123  and  _125
REMARK   51  A    between atoms: _125  and  _126
REMARK   52  A    between atoms: _125  and  _128
REMARK   53  A    between atoms: _128  and  _129
REMARK   54  A    between atoms: _135  and  _137
REMARK   55  A    between atoms: _137  and  _138
REMARK   56  A    between atoms: _137  and  _140
REMARK   57  A    between atoms: _140  and  _141
REMARK   58  A    between atoms: _147  and  _149
REMARK   59  A    between atoms: _149  and  _150
REMARK   60  A    between atoms: _149  and  _152
REMARK   61  A    between atoms: _152  and  _153
REMARK   62  A    between atoms: _158  and  _159
REMARK   63  A    between atoms: _161  and  _163
REMARK   64  A    between atoms: _163  and  _164
REMARK   65  A    between atoms: _163  and  _166
REMARK   66  A    between atoms: _166  and  _167
REMARK   67  A    between atoms: _167  and  _168
REMARK   68  A    between atoms: _168  and  _169
REMARK   69  A    between atoms: _178  and  _180
REMARK   70  A    between atoms: _180  and  _181
REMARK   71  A    between atoms: _180  and  _183
REMARK   72  A    between atoms: _183  and  _184
REMARK   73  A    between atoms: _187  and  _189
REMARK   74  A    between atoms: _189  and  _190
REMARK   75  A    between atoms: _189  and  _192
REMARK   76  A    between atoms: _192  and  _193
REMARK   77  A    between atoms: _198  and  _200
REMARK   78  A    between atoms: _200  and  _201
REMARK   79  A    between atoms: _204  and  _206
REMARK   80  A    between atoms: _206  and  _207
REMARK   81  A    between atoms: _206  and  _209
REMARK   82  A    between atoms: _209  and  _210
REMARK   83  A    between atoms: _212  and  _214
REMARK   84  A    between atoms: _214  and  _215
REMARK   85  A    between atoms: _217  and  _219
REMARK   86  A    between atoms: _219  and  _220
REMARK   87  A    between atoms: _219  and  _222
REMARK   88  A    between atoms: _222  and  _223
REMARK   89  A    between atoms: _228  and  _230
REMARK   90  A    between atoms: _230  and  _231
REMARK   91  A    between atoms: _230  and  _233
REMARK   92  A    between atoms: _233  and  _234
REMARK   93  A    between atoms: _239  and  _241
REMARK   94  A    between atoms: _241  and  _242
REMARK   95  A    between atoms: _241  and  _244
REMARK   96  A    between atoms: _244  and  _245
REMARK   97  A    between atoms: _251  and  _253
REMARK   98  A    between atoms: _253  and  _254
REMARK   99  A    between atoms: _253  and  _256
REMARK                            x       y       z     vdW  Elec       q    Type
REMARK                         _______ _______ _______ _____ _____    ______ ____
ROOT
ATOM      1  O   HOH     1      25.391 -43.800   2.170  0.00  0.00    +0.000 OA
ENDROOT
TORSDOF 0
REMARK  Name = ../refined-set-2016/1det/1det_pocket.pdb
REMARK  99 active torsions:
REMARK  status: ('A' for Active; 'I' for Inactive)
REMARK    1  A    between atoms: _1  and  _3
REMARK    2  A    between atoms: _3  and  _4
REMARK    3  A    between atoms: _3  and  _6
REMARK    4  A    between atoms: _6  and  _7
REMARK    5  A    between atoms: _12  and  _14
REMARK    6  A    between atoms: _14  and  _15
REMARK    7  A    between atoms: _14  and  _17
REMARK    8  A    between atoms: _17  and  _18
REMARK    9  A    between atoms: _20  and  _22
REMARK   10  A    between atoms: _22  and  _23
REMARK   11  A    between atoms: _22  and  _25
REMARK   12  A    between atoms: _25  and  _26
REMARK   13  A    between atoms: _31  and  _32
REMARK   14  A    between atoms: _34  and  _36
REMARK   15  A    between atoms: _36  and  _37
REMARK   16  A    between atoms: _36  and  _39
REMARK   17  A    between atoms: _39  and  _40
REMARK   18  A    between atoms: _45  and  _47
REMARK   19  A    between atoms: _47  and  _48
REMARK   20  A    between atoms: _47  and  _50
REMARK   21  A    between atoms: _50  and  _51
REMARK   22  A    between atoms: _51  and  _52
REMARK   23  A    between atoms: _52  and  _53
REMARK   24  A    between atoms: _53  and  _54
REMARK   25  A    between atoms: _58  and  _60
REMARK   26  A    between atoms: _60  and  _61
REMARK   27  A    between atoms: _60  and  _63
REMARK   28  A    between atoms: _63  and  _64
REMARK   29  A    between atoms: _69  and  _70
REMARK   30  A    between atoms: _72  and  _74
REMARK   31  A    between atoms: _74  and  _75
REMARK   32  A    between atoms: _74  and  _77
REMARK   33  A    between atoms: _77  and  _78
REMARK   34  A    between atoms: _83  and  _85
REMARK   35  A    between atoms: _85  and  _86
REMARK   36  A    between atoms: _85  and  _88
REMARK   37  A    between atoms: _88  and  _89
REMARK   38  A    between atoms: _94  and  _96
REMARK   39  A    between atoms: _96  and  _97
REMARK   40  A    between atoms: _96  and  _99
REMARK   41  A    between atoms: _99  and  _100
REMARK   42  A    between atoms: _105  and  _106
REMARK   43  A    between atoms: _108  and  _110
REMARK   44  A    between atoms: _110  and  _111
REMARK   45  A    between atoms: _110  and  _113
REMARK   46  A    between atoms: _113  and  _114
REMARK   47  A    between atoms: _114  and  _115
REMARK   48  A    between atoms: _118  and  _120
REMARK   49  A    between atoms: _120  and  _121
REMARK   50  A    between atoms: _123  and  _125
REMARK   51  A    between atoms: _125  and  _126
REMARK   52  A    between atoms: _125  and  _128
REMARK   53  A    between atoms: _128  and  _129
REMARK   54  A    between atoms: _135  and  _137
REMARK   55  A    between atoms: _137  and  _138
REMARK   56  A    between atoms: _137  and  _140
REMARK   57  A    between atoms: _140  and  _141
REMARK   58  A    between atoms: _147  and  _149
REMARK   59  A    between atoms: _149  and  _150
REMARK   60  A    between atoms: _149  and  _152
REMARK   61  A    between atoms: _152  and  _153
REMARK   62  A    between atoms: _158  and  _159
REMARK   63  A    between atoms: _161  and  _163
REMARK   64  A    between atoms: _163  and  _164
REMARK   65  A    between atoms: _163  and  _166
REMARK   66  A    between atoms: _166  and  _167
REMARK   67  A    between atoms: _167  and  _168
REMARK   68  A    between atoms: _168  and  _169
REMARK   69  A    between atoms: _178  and  _180
REMARK   70  A    between atoms: _180  and  _181
REMARK   71  A    between atoms: _180  and  _183
REMARK   72  A    between atoms: _183  and  _184
REMARK   73  A    between atoms: _187  and  _189
REMARK   74  A    between atoms: _189  and  _190
REMARK   75  A    between atoms: _189  and  _192
REMARK   76  A    between atoms: _192  and  _193
REMARK   77  A    between atoms: _198  and  _200
REMARK   78  A    between atoms: _200  and  _201
REMARK   79  A    between atoms: _204  and  _206
REMARK   80  A    between atoms: _206  and  _207
REMARK   81  A    between atoms: _206  and  _209
REMARK   82  A    between atoms: _209  and  _210
REMARK   83  A    between atoms: _212  and  _214
REMARK   84  A    between atoms: _214  and  _215
REMARK   85  A    between atoms: _217  and  _219
REMARK   86  A    between atoms: _219  and  _220
REMARK   87  A    between atoms: _219  and  _222
REMARK   88  A    between atoms: _222  and  _223
REMARK   89  A    between atoms: _228  and  _230
REMARK   90  A    between atoms: _230  and  _231
REMARK   91  A    between atoms: _230  and  _233
REMARK   92  A    between atoms: _233  and  _234
REMARK   93  A    between atoms: _239  and  _241
REMARK   94  A    between atoms: _241  and  _242
REMARK   95  A    between atoms: _241  and  _244
REMARK   96  A    between atoms: _244  and  _245
REMARK   97  A    between atoms: _251  and  _253
REMARK   98  A    between atoms: _253  and  _254
REMARK   99  A    between atoms: _253  and  _256
REMARK                            x       y       z     vdW  Elec       q    Type
REMARK                         _______ _______ _______ _____ _____    ______ ____
ROOT
ATOM      1  O   HOH     1      18.229 -43.173   0.904  0.00  0.00    +0.000 OA
ENDROOT
TORSDOF 0
REMARK  Name = ../refined-set-2016/1det/1det_pocket.pdb
REMARK  99 active torsions:
REMARK  status: ('A' for Active; 'I' for Inactive)
REMARK    1  A    between atoms: _1  and  _3
REMARK    2  A    between atoms: _3  and  _4
REMARK    3  A    between atoms: _3  and  _6
REMARK    4  A    between atoms: _6  and  _7
REMARK    5  A    between atoms: _12  and  _14
REMARK    6  A    between atoms: _14  and  _15
REMARK    7  A    between atoms: _14  and  _17
REMARK    8  A    between atoms: _17  and  _18
REMARK    9  A    between atoms: _20  and  _22
REMARK   10  A    between atoms: _22  and  _23
REMARK   11  A    between atoms: _22  and  _25
REMARK   12  A    between atoms: _25  and  _26
REMARK   13  A    between atoms: _31  and  _32
REMARK   14  A    between atoms: _34  and  _36
REMARK   15  A    between atoms: _36  and  _37
REMARK   16  A    between atoms: _36  and  _39
REMARK   17  A    between atoms: _39  and  _40
REMARK   18  A    between atoms: _45  and  _47
REMARK   19  A    between atoms: _47  and  _48
REMARK   20  A    between atoms: _47  and  _50
REMARK   21  A    between atoms: _50  and  _51
REMARK   22  A    between atoms: _51  and  _52
REMARK   23  A    between atoms: _52  and  _53
REMARK   24  A    between atoms: _53  and  _54
REMARK   25  A    between atoms: _58  and  _60
REMARK   26  A    between atoms: _60  and  _61
REMARK   27  A    between atoms: _60  and  _63
REMARK   28  A    between atoms: _63  and  _64
REMARK   29  A    between atoms: _69  and  _70
REMARK   30  A    between atoms: _72  and  _74
REMARK   31  A    between atoms: _74  and  _75
REMARK   32  A    between atoms: _74  and  _77
REMARK   33  A    between atoms: _77  and  _78
REMARK   34  A    between atoms: _83  and  _85
REMARK   35  A    between atoms: _85  and  _86
REMARK   36  A    between atoms: _85  and  _88
REMARK   37  A    between atoms: _88  and  _89
REMARK   38  A    between atoms: _94  and  _96
REMARK   39  A    between atoms: _96  and  _97
REMARK   40  A    between atoms: _96  and  _99
REMARK   41  A    between atoms: _99  and  _100
REMARK   42  A    between atoms: _105  and  _106
REMARK   43  A    between atoms: _108  and  _110
REMARK   44  A    between atoms: _110  and  _111
REMARK   45  A    between atoms: _110  and  _113
REMARK   46  A    between atoms: _113  and  _114
REMARK   47  A    between atoms: _114  and  _115
REMARK   48  A    between atoms: _118  and  _120
REMARK   49  A    between atoms: _120  and  _121
REMARK   50  A    between atoms: _123  and  _125
REMARK   51  A    between atoms: _125  and  _126
REMARK   52  A    between atoms: _125  and  _128
REMARK   53  A    between atoms: _128  and  _129
REMARK   54  A    between atoms: _135  and  _137
REMARK   55  A    between atoms: _137  and  _138
REMARK   56  A    between atoms: _137  and  _140
REMARK   57  A    between atoms: _140  and  _141
REMARK   58  A    between atoms: _147  and  _149
REMARK   59  A    between atoms: _149  and  _150
REMARK   60  A    between atoms: _149  and  _152
REMARK   61  A    between atoms: _152  and  _153
REMARK   62  A    between atoms: _158  and  _159
REMARK   63  A    between atoms: _161  and  _163
REMARK   64  A    between atoms: _163  and  _164
REMARK   65  A    between atoms: _163  and  _166
REMARK   66  A    between atoms: _166  and  _167
REMARK   67  A    between atoms: _167  and  _168
REMARK   68  A    between atoms: _168  and  _169
REMARK   69  A    between atoms: _178  and  _180
REMARK   70  A    between atoms: _180  and  _181
REMARK   71  A    between atoms: _180  and  _183
REMARK   72  A    between atoms: _183  and  _184
REMARK   73  A    between atoms: _187  and  _189
REMARK   74  A    between atoms: _189  and  _190
REMARK   75  A    between atoms: _189  and  _192
REMARK   76  A    between atoms: _192  and  _193
REMARK   77  A    between atoms: _198  and  _200
REMARK   78  A    between atoms: _200  and  _201
REMARK   79  A    between atoms: _204  and  _206
REMARK   80  A    between atoms: _206  and  _207
REMARK   81  A    between atoms: _206  and  _209
REMARK   82  A    between atoms: _209  and  _210
REMARK   83  A    between atoms: _212  and  _214
REMARK   84  A    between atoms: _214  and  _215
REMARK   85  A    between atoms: _217  and  _219
REMARK   86  A    between atoms: _219  and  _220
REMARK   87  A    between atoms: _219  and  _222
REMARK   88  A    between atoms: _222  and  _223
REMARK   89  A    between atoms: _228  and  _230
REMARK   90  A    between atoms: _230  and  _231
REMARK   91  A    between atoms: _230  and  _233
REMARK   92  A    between atoms: _233  and  _234
REMARK   93  A    between atoms: _239  and  _241
REMARK   94  A    between atoms: _241  and  _242
REMARK   95  A    between atoms: _241  and  _244
REMARK   96  A    between atoms: _244  and  _245
REMARK   97  A    between atoms: _251  and  _253
REMARK   98  A    between atoms: _253  and  _254
REMARK   99  A    between atoms: _253  and  _256
REMARK                            x       y       z     vdW  Elec       q    Type
REMARK                         _______ _______ _______ _____ _____    ______ ____
ROOT
ATOM      1  O   HOH     1      14.980 -47.293   6.429  0.00  0.00    +0.000 OA
ENDROOT
TORSDOF 0
