REMARK  Name = ../refined-set-2016/1li6/1li6_pocket.pdb
REMARK  135 active torsions:
REMARK  status: ('A' for Active; 'I' for Inactive)
REMARK    1  A    between atoms: _1  and  _3
REMARK    2  A    between atoms: _3  and  _4
REMARK    3  A    between atoms: _7  and  _9
REMARK    4  A    between atoms: _9  and  _10
REMARK    5  A    between atoms: _9  and  _12
REMARK    6  A    between atoms: _12  and  _13
REMARK    7  A    between atoms: _16  and  _18
REMARK    8  A    between atoms: _18  and  _19
REMARK    9  A    between atoms: _18  and  _21
REMARK   10  A    between atoms: _21  and  _22
REMARK   11  A    between atoms: _27  and  _29
REMARK   12  A    between atoms: _29  and  _30
REMARK   13  A    between atoms: _29  and  _32
REMARK   14  A    between atoms: _32  and  _33
REMARK   15  A    between atoms: _33  and  _34
REMARK   16  A    between atoms: _34  and  _35
REMARK   17  A    between atoms: _35  and  _36
REMARK   18  A    between atoms: _40  and  _42
REMARK   19  A    between atoms: _42  and  _43
REMARK   20  A    between atoms: _42  and  _45
REMARK   21  A    between atoms: _45  and  _46
REMARK   22  A    between atoms: _49  and  _51
REMARK   23  A    between atoms: _51  and  _52
REMARK   24  A    between atoms: _51  and  _54
REMARK   25  A    between atoms: _54  and  _55
REMARK   26  A    between atoms: _55  and  _56
REMARK   27  A    between atoms: _56  and  _57
REMARK   28  A    between atoms: _57  and  _58
REMARK   29  A    between atoms: _63  and  _64
REMARK   30  A    between atoms: _69  and  _71
REMARK   31  A    between atoms: _71  and  _72
REMARK   32  A    between atoms: _71  and  _74
REMARK   33  A    between atoms: _77  and  _79
REMARK   34  A    between atoms: _79  and  _80
REMARK   35  A    between atoms: _79  and  _82
REMARK   36  A    between atoms: _82  and  _83
REMARK   37  A    between atoms: _88  and  _89
REMARK   38  A    between atoms: _91  and  _93
REMARK   39  A    between atoms: _93  and  _94
REMARK   40  A    between atoms: _93  and  _96
REMARK   41  A    between atoms: _96  and  _97
REMARK   42  A    between atoms: _100  and  _102
REMARK   43  A    between atoms: _102  and  _103
REMARK   44  A    between atoms: _102  and  _105
REMARK   45  A    between atoms: _105  and  _106
REMARK   46  A    between atoms: _108  and  _110
REMARK   47  A    between atoms: _110  and  _111
REMARK   48  A    between atoms: _110  and  _113
REMARK   49  A    between atoms: _113  and  _114
REMARK   50  A    between atoms: _117  and  _119
REMARK   51  A    between atoms: _119  and  _120
REMARK   52  A    between atoms: _119  and  _122
REMARK   53  A    between atoms: _122  and  _123
REMARK   54  A    between atoms: _123  and  _124
REMARK   55  A    between atoms: _124  and  _125
REMARK   56  A    between atoms: _134  and  _136
REMARK   57  A    between atoms: _136  and  _137
REMARK   58  A    between atoms: _136  and  _139
REMARK   59  A    between atoms: _139  and  _140
REMARK   60  A    between atoms: _140  and  _141
REMARK   61  A    between atoms: _141  and  _142
REMARK   62  A    between atoms: _151  and  _153
REMARK   63  A    between atoms: _153  and  _154
REMARK   64  A    between atoms: _157  and  _159
REMARK   65  A    between atoms: _159  and  _160
REMARK   66  A    between atoms: _163  and  _165
REMARK   67  A    between atoms: _165  and  _166
REMARK   68  A    between atoms: _165  and  _168
REMARK   69  A    between atoms: _168  and  _169
REMARK   70  A    between atoms: _172  and  _174
REMARK   71  A    between atoms: _174  and  _175
REMARK   72  A    between atoms: _174  and  _177
REMARK   73  A    between atoms: _177  and  _178
REMARK   74  A    between atoms: _183  and  _185
REMARK   75  A    between atoms: _185  and  _186
REMARK   76  A    between atoms: _185  and  _188
REMARK   77  A    between atoms: _189  and  _190
REMARK   78  A    between atoms: _195  and  _197
REMARK   79  A    between atoms: _197  and  _198
REMARK   80  A    between atoms: _197  and  _200
REMARK   81  A    between atoms: _203  and  _205
REMARK   82  A    between atoms: _205  and  _206
REMARK   83  A    between atoms: _205  and  _208
REMARK   84  A    between atoms: _208  and  _209
REMARK   85  A    between atoms: _215  and  _217
REMARK   86  A    between atoms: _217  and  _218
REMARK   87  A    between atoms: _217  and  _220
REMARK   88  A    between atoms: _220  and  _221
REMARK   89  A    between atoms: _221  and  _222
REMARK   90  A    between atoms: _224  and  _226
REMARK   91  A    between atoms: _226  and  _227
REMARK   92  A    between atoms: _229  and  _231
REMARK   93  A    between atoms: _231  and  _232
REMARK   94  A    between atoms: _231  and  _234
REMARK   95  A    between atoms: _234  and  _235
REMARK   96  A    between atoms: _235  and  _236
REMARK   97  A    between atoms: _239  and  _241
REMARK   98  A    between atoms: _241  and  _242
REMARK   99  A    between atoms: _244  and  _246
REMARK  100  A    between atoms: _246  and  _247
REMARK  101  A    between atoms: _246  and  _249
REMARK  102  A    between atoms: _252  and  _254
REMARK  103  A    between atoms: _254  and  _255
REMARK  104  A    between atoms: _258  and  _260
REMARK  105  A    between atoms: _260  and  _261
REMARK  106  A    between atoms: _260  and  _263
REMARK  107  A    between atoms: _263  and  _264
REMARK  108  A    between atoms: _270  and  _272
REMARK  109  A    between atoms: _272  and  _273
REMARK  110  A    between atoms: _272  and  _275
REMARK  111  A    between atoms: _275  and  _276
REMARK  112  A    between atoms: _278  and  _280
REMARK  113  A    between atoms: _280  and  _281
REMARK  114  A    between atoms: _280  and  _283
REMARK  115  A    between atoms: _283  and  _284
REMARK  116  A    between atoms: _287  and  _289
REMARK  117  A    between atoms: _289  and  _290
REMARK  118  A    between atoms: _289  and  _292
REMARK  119  A    between atoms: _292  and  _293
REMARK  120  A    between atoms: _296  and  _298
REMARK  121  A    between atoms: _298  and  _299
REMARK  122  A    between atoms: _298  and  _301
REMARK  123  A    between atoms: _301  and  _302
REMARK  124  A    between atoms: _302  and  _303
REMARK  125  A    between atoms: _308  and  _310
REMARK  126  A    between atoms: _310  and  _311
REMARK  127  A    between atoms: _310  and  _313
REMARK  128  A    between atoms: _313  and  _314
REMARK  129  A    between atoms: _317  and  _319
REMARK  130  A    between atoms: _319  and  _320
REMARK  131  A    between atoms: _319  and  _322
REMARK  132  A    between atoms: _325  and  _327
REMARK  133  A    between atoms: _327  and  _328
REMARK  134  A    between atoms: _327  and  _330
REMARK  135  A    between atoms: _330  and  _331
REMARK                            x       y       z     vdW  Elec       q    Type
REMARK                         _______ _______ _______ _____ _____    ______ ____
ROOT
ATOM      1  CA  ALA A   1      29.110   8.381  14.374  0.00  0.00    +0.133 C 
ATOM      2  CB  ALA A   1      30.429   8.436  13.555  0.00  0.00    +0.027 C 
ENDROOT
BRANCH   1   3
ATOM      3  N   ALA A   1      29.316   8.399  15.843  0.00  0.00    -0.239 NA
ATOM      4  H   ALA A   1      30.284   8.446  16.220  0.00  0.00    +0.142 HD
ENDBRANCH   1   3
BRANCH   1   5
ATOM      5  C   ALA A   1      28.367   7.118  13.893  0.00  0.00    +0.224 C 
ATOM      6  O   ALA A   1      27.447   7.169  13.086  0.00  0.00    -0.287 OA
ENDBRANCH   1   5
TORSDOF 2
REMARK  Name = ../refined-set-2016/1li6/1li6_pocket.pdb
REMARK  135 active torsions:
REMARK  status: ('A' for Active; 'I' for Inactive)
REMARK    1  A    between atoms: _1  and  _3
REMARK    2  A    between atoms: _3  and  _4
REMARK    3  A    between atoms: _7  and  _9
REMARK    4  A    between atoms: _9  and  _10
REMARK    5  A    between atoms: _9  and  _12
REMARK    6  A    between atoms: _12  and  _13
REMARK    7  A    between atoms: _16  and  _18
REMARK    8  A    between atoms: _18  and  _19
REMARK    9  A    between atoms: _18  and  _21
REMARK   10  A    between atoms: _21  and  _22
REMARK   11  A    between atoms: _27  and  _29
REMARK   12  A    between atoms: _29  and  _30
REMARK   13  A    between atoms: _29  and  _32
REMARK   14  A    between atoms: _32  and  _33
REMARK   15  A    between atoms: _33  and  _34
REMARK   16  A    between atoms: _34  and  _35
REMARK   17  A    between atoms: _35  and  _36
REMARK   18  A    between atoms: _40  and  _42
REMARK   19  A    between atoms: _42  and  _43
REMARK   20  A    between atoms: _42  and  _45
REMARK   21  A    between atoms: _45  and  _46
REMARK   22  A    between atoms: _49  and  _51
REMARK   23  A    between atoms: _51  and  _52
REMARK   24  A    between atoms: _51  and  _54
REMARK   25  A    between atoms: _54  and  _55
REMARK   26  A    between atoms: _55  and  _56
REMARK   27  A    between atoms: _56  and  _57
REMARK   28  A    between atoms: _57  and  _58
REMARK   29  A    between atoms: _63  and  _64
REMARK   30  A    between atoms: _69  and  _71
REMARK   31  A    between atoms: _71  and  _72
REMARK   32  A    between atoms: _71  and  _74
REMARK   33  A    between atoms: _77  and  _79
REMARK   34  A    between atoms: _79  and  _80
REMARK   35  A    between atoms: _79  and  _82
REMARK   36  A    between atoms: _82  and  _83
REMARK   37  A    between atoms: _88  and  _89
REMARK   38  A    between atoms: _91  and  _93
REMARK   39  A    between atoms: _93  and  _94
REMARK   40  A    between atoms: _93  and  _96
REMARK   41  A    between atoms: _96  and  _97
REMARK   42  A    between atoms: _100  and  _102
REMARK   43  A    between atoms: _102  and  _103
REMARK   44  A    between atoms: _102  and  _105
REMARK   45  A    between atoms: _105  and  _106
REMARK   46  A    between atoms: _108  and  _110
REMARK   47  A    between atoms: _110  and  _111
REMARK   48  A    between atoms: _110  and  _113
REMARK   49  A    between atoms: _113  and  _114
REMARK   50  A    between atoms: _117  and  _119
REMARK   51  A    between atoms: _119  and  _120
REMARK   52  A    between atoms: _119  and  _122
REMARK   53  A    between atoms: _122  and  _123
REMARK   54  A    between atoms: _123  and  _124
REMARK   55  A    between atoms: _124  and  _125
REMARK   56  A    between atoms: _134  and  _136
REMARK   57  A    between atoms: _136  and  _137
REMARK   58  A    between atoms: _136  and  _139
REMARK   59  A    between atoms: _139  and  _140
REMARK   60  A    between atoms: _140  and  _141
REMARK   61  A    between atoms: _141  and  _142
REMARK   62  A    between atoms: _151  and  _153
REMARK   63  A    between atoms: _153  and  _154
REMARK   64  A    between atoms: _157  and  _159
REMARK   65  A    between atoms: _159  and  _160
REMARK   66  A    between atoms: _163  and  _165
REMARK   67  A    between atoms: _165  and  _166
REMARK   68  A    between atoms: _165  and  _168
REMARK   69  A    between atoms: _168  and  _169
REMARK   70  A    between atoms: _172  and  _174
REMARK   71  A    between atoms: _174  and  _175
REMARK   72  A    between atoms: _174  and  _177
REMARK   73  A    between atoms: _177  and  _178
REMARK   74  A    between atoms: _183  and  _185
REMARK   75  A    between atoms: _185  and  _186
REMARK   76  A    between atoms: _185  and  _188
REMARK   77  A    between atoms: _189  and  _190
REMARK   78  A    between atoms: _195  and  _197
REMARK   79  A    between atoms: _197  and  _198
REMARK   80  A    between atoms: _197  and  _200
REMARK   81  A    between atoms: _203  and  _205
REMARK   82  A    between atoms: _205  and  _206
REMARK   83  A    between atoms: _205  and  _208
REMARK   84  A    between atoms: _208  and  _209
REMARK   85  A    between atoms: _215  and  _217
REMARK   86  A    between atoms: _217  and  _218
REMARK   87  A    between atoms: _217  and  _220
REMARK   88  A    between atoms: _220  and  _221
REMARK   89  A    between atoms: _221  and  _222
REMARK   90  A    between atoms: _224  and  _226
REMARK   91  A    between atoms: _226  and  _227
REMARK   92  A    between atoms: _229  and  _231
REMARK   93  A    between atoms: _231  and  _232
REMARK   94  A    between atoms: _231  and  _234
REMARK   95  A    between atoms: _234  and  _235
REMARK   96  A    between atoms: _235  and  _236
REMARK   97  A    between atoms: _239  and  _241
REMARK   98  A    between atoms: _241  and  _242
REMARK   99  A    between atoms: _244  and  _246
REMARK  100  A    between atoms: _246  and  _247
REMARK  101  A    between atoms: _246  and  _249
REMARK  102  A    between atoms: _252  and  _254
REMARK  103  A    between atoms: _254  and  _255
REMARK  104  A    between atoms: _258  and  _260
REMARK  105  A    between atoms: _260  and  _261
REMARK  106  A    between atoms: _260  and  _263
REMARK  107  A    between atoms: _263  and  _264
REMARK  108  A    between atoms: _270  and  _272
REMARK  109  A    between atoms: _272  and  _273
REMARK  110  A    between atoms: _272  and  _275
REMARK  111  A    between atoms: _275  and  _276
REMARK  112  A    between atoms: _278  and  _280
REMARK  113  A    between atoms: _280  and  _281
REMARK  114  A    between atoms: _280  and  _283
REMARK  115  A    between atoms: _283  and  _284
REMARK  116  A    between atoms: _287  and  _289
REMARK  117  A    between atoms: _289  and  _290
REMARK  118  A    between atoms: _289  and  _292
REMARK  119  A    between atoms: _292  and  _293
REMARK  120  A    between atoms: _296  and  _298
REMARK  121  A    between atoms: _298  and  _299
REMARK  122  A    between atoms: _298  and  _301
REMARK  123  A    between atoms: _301  and  _302
REMARK  124  A    between atoms: _302  and  _303
REMARK  125  A    between atoms: _308  and  _310
REMARK  126  A    between atoms: _310  and  _311
REMARK  127  A    between atoms: _310  and  _313
REMARK  128  A    between atoms: _313  and  _314
REMARK  129  A    between atoms: _317  and  _319
REMARK  130  A    between atoms: _319  and  _320
REMARK  131  A    between atoms: _319  and  _322
REMARK  132  A    between atoms: _325  and  _327
REMARK  133  A    between atoms: _327  and  _328
REMARK  134  A    between atoms: _327  and  _330
REMARK  135  A    between atoms: _330  and  _331
REMARK                            x       y       z     vdW  Elec       q    Type
REMARK                         _______ _______ _______ _____ _____    ______ ____
ROOT
ATOM      1  CA  ILE A   1      24.378   6.228  11.015  0.00  0.00    +0.133 C 
ENDROOT
BRANCH   1   2
ATOM      2  N   ILE A   1      24.713   6.891  12.268  0.00  0.00    -0.239 NA
ATOM      3  H   ILE A   1      25.639   6.737  12.715  0.00  0.00    +0.142 HD
ENDBRANCH   1   2
BRANCH   1   4
ATOM      4  C   ILE A   1      23.203   5.317  11.216  0.00  0.00    +0.224 C 
ATOM      5  O   ILE A   1      22.210   5.269  10.458  0.00  0.00    -0.287 OA
ENDBRANCH   1   4
BRANCH   1   6
ATOM      6  CB  ILE A   1      25.548   5.284  10.606  0.00  0.00    +0.023 C 
ATOM      7  CG2 ILE A   1      25.059   4.307   9.504  0.00  0.00    +0.002 C 
BRANCH   6   8
ATOM      8  CG1 ILE A   1      26.544   6.207   9.867  0.00  0.00    +0.002 C 
ATOM      9  CD1 ILE A   1      27.941   5.612   9.569  0.00  0.00    +0.000 C 
ENDBRANCH   6   8
ENDBRANCH   1   6
TORSDOF 4
REMARK  Name = ../refined-set-2016/1li6/1li6_pocket.pdb
REMARK  135 active torsions:
REMARK  status: ('A' for Active; 'I' for Inactive)
REMARK    1  A    between atoms: _1  and  _3
REMARK    2  A    between atoms: _3  and  _4
REMARK    3  A    between atoms: _7  and  _9
REMARK    4  A    between atoms: _9  and  _10
REMARK    5  A    between atoms: _9  and  _12
REMARK    6  A    between atoms: _12  and  _13
REMARK    7  A    between atoms: _16  and  _18
REMARK    8  A    between atoms: _18  and  _19
REMARK    9  A    between atoms: _18  and  _21
REMARK   10  A    between atoms: _21  and  _22
REMARK   11  A    between atoms: _27  and  _29
REMARK   12  A    between atoms: _29  and  _30
REMARK   13  A    between atoms: _29  and  _32
REMARK   14  A    between atoms: _32  and  _33
REMARK   15  A    between atoms: _33  and  _34
REMARK   16  A    between atoms: _34  and  _35
REMARK   17  A    between atoms: _35  and  _36
REMARK   18  A    between atoms: _40  and  _42
REMARK   19  A    between atoms: _42  and  _43
REMARK   20  A    between atoms: _42  and  _45
REMARK   21  A    between atoms: _45  and  _46
REMARK   22  A    between atoms: _49  and  _51
REMARK   23  A    between atoms: _51  and  _52
REMARK   24  A    between atoms: _51  and  _54
REMARK   25  A    between atoms: _54  and  _55
REMARK   26  A    between atoms: _55  and  _56
REMARK   27  A    between atoms: _56  and  _57
REMARK   28  A    between atoms: _57  and  _58
REMARK   29  A    between atoms: _63  and  _64
REMARK   30  A    between atoms: _69  and  _71
REMARK   31  A    between atoms: _71  and  _72
REMARK   32  A    between atoms: _71  and  _74
REMARK   33  A    between atoms: _77  and  _79
REMARK   34  A    between atoms: _79  and  _80
REMARK   35  A    between atoms: _79  and  _82
REMARK   36  A    between atoms: _82  and  _83
REMARK   37  A    between atoms: _88  and  _89
REMARK   38  A    between atoms: _91  and  _93
REMARK   39  A    between atoms: _93  and  _94
REMARK   40  A    between atoms: _93  and  _96
REMARK   41  A    between atoms: _96  and  _97
REMARK   42  A    between atoms: _100  and  _102
REMARK   43  A    between atoms: _102  and  _103
REMARK   44  A    between atoms: _102  and  _105
REMARK   45  A    between atoms: _105  and  _106
REMARK   46  A    between atoms: _108  and  _110
REMARK   47  A    between atoms: _110  and  _111
REMARK   48  A    between atoms: _110  and  _113
REMARK   49  A    between atoms: _113  and  _114
REMARK   50  A    between atoms: _117  and  _119
REMARK   51  A    between atoms: _119  and  _120
REMARK   52  A    between atoms: _119  and  _122
REMARK   53  A    between atoms: _122  and  _123
REMARK   54  A    between atoms: _123  and  _124
REMARK   55  A    between atoms: _124  and  _125
REMARK   56  A    between atoms: _134  and  _136
REMARK   57  A    between atoms: _136  and  _137
REMARK   58  A    between atoms: _136  and  _139
REMARK   59  A    between atoms: _139  and  _140
REMARK   60  A    between atoms: _140  and  _141
REMARK   61  A    between atoms: _141  and  _142
REMARK   62  A    between atoms: _151  and  _153
REMARK   63  A    between atoms: _153  and  _154
REMARK   64  A    between atoms: _157  and  _159
REMARK   65  A    between atoms: _159  and  _160
REMARK   66  A    between atoms: _163  and  _165
REMARK   67  A    between atoms: _165  and  _166
REMARK   68  A    between atoms: _165  and  _168
REMARK   69  A    between atoms: _168  and  _169
REMARK   70  A    between atoms: _172  and  _174
REMARK   71  A    between atoms: _174  and  _175
REMARK   72  A    between atoms: _174  and  _177
REMARK   73  A    between atoms: _177  and  _178
REMARK   74  A    between atoms: _183  and  _185
REMARK   75  A    between atoms: _185  and  _186
REMARK   76  A    between atoms: _185  and  _188
REMARK   77  A    between atoms: _189  and  _190
REMARK   78  A    between atoms: _195  and  _197
REMARK   79  A    between atoms: _197  and  _198
REMARK   80  A    between atoms: _197  and  _200
REMARK   81  A    between atoms: _203  and  _205
REMARK   82  A    between atoms: _205  and  _206
REMARK   83  A    between atoms: _205  and  _208
REMARK   84  A    between atoms: _208  and  _209
REMARK   85  A    between atoms: _215  and  _217
REMARK   86  A    between atoms: _217  and  _218
REMARK   87  A    between atoms: _217  and  _220
REMARK   88  A    between atoms: _220  and  _221
REMARK   89  A    between atoms: _221  and  _222
REMARK   90  A    between atoms: _224  and  _226
REMARK   91  A    between atoms: _226  and  _227
REMARK   92  A    between atoms: _229  and  _231
REMARK   93  A    between atoms: _231  and  _232
REMARK   94  A    between atoms: _231  and  _234
REMARK   95  A    between atoms: _234  and  _235
REMARK   96  A    between atoms: _235  and  _236
REMARK   97  A    between atoms: _239  and  _241
REMARK   98  A    between atoms: _241  and  _242
REMARK   99  A    between atoms: _244  and  _246
REMARK  100  A    between atoms: _246  and  _247
REMARK  101  A    between atoms: _246  and  _249
REMARK  102  A    between atoms: _252  and  _254
REMARK  103  A    between atoms: _254  and  _255
REMARK  104  A    between atoms: _258  and  _260
REMARK  105  A    between atoms: _260  and  _261
REMARK  106  A    between atoms: _260  and  _263
REMARK  107  A    between atoms: _263  and  _264
REMARK  108  A    between atoms: _270  and  _272
REMARK  109  A    between atoms: _272  and  _273
REMARK  110  A    between atoms: _272  and  _275
REMARK  111  A    between atoms: _275  and  _276
REMARK  112  A    between atoms: _278  and  _280
REMARK  113  A    between atoms: _280  and  _281
REMARK  114  A    between atoms: _280  and  _283
REMARK  115  A    between atoms: _283  and  _284
REMARK  116  A    between atoms: _287  and  _289
REMARK  117  A    between atoms: _289  and  _290
REMARK  118  A    between atoms: _289  and  _292
REMARK  119  A    between atoms: _292  and  _293
REMARK  120  A    between atoms: _296  and  _298
REMARK  121  A    between atoms: _298  and  _299
REMARK  122  A    between atoms: _298  and  _301
REMARK  123  A    between atoms: _301  and  _302
REMARK  124  A    between atoms: _302  and  _303
REMARK  125  A    between atoms: _308  and  _310
REMARK  126  A    between atoms: _310  and  _311
REMARK  127  A    between atoms: _310  and  _313
REMARK  128  A    between atoms: _313  and  _314
REMARK  129  A    between atoms: _317  and  _319
REMARK  130  A    between atoms: _319  and  _320
REMARK  131  A    between atoms: _319  and  _322
REMARK  132  A    between atoms: _325  and  _327
REMARK  133  A    between atoms: _327  and  _328
REMARK  134  A    between atoms: _327  and  _330
REMARK  135  A    between atoms: _330  and  _331
REMARK                            x       y       z     vdW  Elec       q    Type
REMARK                         _______ _______ _______ _____ _____    ______ ____
ROOT
ATOM      1  CB  ASN A   1      20.439   8.571   9.789  0.00  0.00    +0.110 C 
ENDROOT
BRANCH   1   2
ATOM      2  CG  ASN A   1      19.992   9.465   8.673  0.00  0.00    +0.221 C 
ATOM      3  ND2 ASN A   1      20.362  10.703   8.848  0.00  0.00    -0.329 N 
ATOM      4 HD21 ASN A   1      20.880  10.974   9.708  0.00  0.00    +0.145 HD
ATOM      5 HD22 ASN A   1      20.139  11.419   8.128  0.00  0.00    +0.145 HD
ATOM      6  OD1 ASN A   1      19.368   9.064   7.669  0.00  0.00    -0.275 OA
ENDBRANCH   1   2
BRANCH   1   7
ATOM      7  CA  ASN A   1      19.334   7.630  10.290  0.00  0.00    +0.142 C 
BRANCH   7   8
ATOM      8  N   ASN A   1      19.825   6.857  11.412  0.00  0.00    -0.239 NA
ATOM      9  H   ASN A   1      20.803   6.504  11.423  0.00  0.00    +0.142 HD
ENDBRANCH   7   8
BRANCH   7  10
ATOM     10  C   ASN A   1      18.624   6.735   9.272  0.00  0.00    +0.225 C 
ATOM     11  O   ASN A   1      19.173   5.759   8.765  0.00  0.00    -0.287 OA
ENDBRANCH   7  10
ENDBRANCH   1   7
TORSDOF 4
REMARK  Name = ../refined-set-2016/1li6/1li6_pocket.pdb
REMARK  135 active torsions:
REMARK  status: ('A' for Active; 'I' for Inactive)
REMARK    1  A    between atoms: _1  and  _3
REMARK    2  A    between atoms: _3  and  _4
REMARK    3  A    between atoms: _7  and  _9
REMARK    4  A    between atoms: _9  and  _10
REMARK    5  A    between atoms: _9  and  _12
REMARK    6  A    between atoms: _12  and  _13
REMARK    7  A    between atoms: _16  and  _18
REMARK    8  A    between atoms: _18  and  _19
REMARK    9  A    between atoms: _18  and  _21
REMARK   10  A    between atoms: _21  and  _22
REMARK   11  A    between atoms: _27  and  _29
REMARK   12  A    between atoms: _29  and  _30
REMARK   13  A    between atoms: _29  and  _32
REMARK   14  A    between atoms: _32  and  _33
REMARK   15  A    between atoms: _33  and  _34
REMARK   16  A    between atoms: _34  and  _35
REMARK   17  A    between atoms: _35  and  _36
REMARK   18  A    between atoms: _40  and  _42
REMARK   19  A    between atoms: _42  and  _43
REMARK   20  A    between atoms: _42  and  _45
REMARK   21  A    between atoms: _45  and  _46
REMARK   22  A    between atoms: _49  and  _51
REMARK   23  A    between atoms: _51  and  _52
REMARK   24  A    between atoms: _51  and  _54
REMARK   25  A    between atoms: _54  and  _55
REMARK   26  A    between atoms: _55  and  _56
REMARK   27  A    between atoms: _56  and  _57
REMARK   28  A    between atoms: _57  and  _58
REMARK   29  A    between atoms: _63  and  _64
REMARK   30  A    between atoms: _69  and  _71
REMARK   31  A    between atoms: _71  and  _72
REMARK   32  A    between atoms: _71  and  _74
REMARK   33  A    between atoms: _77  and  _79
REMARK   34  A    between atoms: _79  and  _80
REMARK   35  A    between atoms: _79  and  _82
REMARK   36  A    between atoms: _82  and  _83
REMARK   37  A    between atoms: _88  and  _89
REMARK   38  A    between atoms: _91  and  _93
REMARK   39  A    between atoms: _93  and  _94
REMARK   40  A    between atoms: _93  and  _96
REMARK   41  A    between atoms: _96  and  _97
REMARK   42  A    between atoms: _100  and  _102
REMARK   43  A    between atoms: _102  and  _103
REMARK   44  A    between atoms: _102  and  _105
REMARK   45  A    between atoms: _105  and  _106
REMARK   46  A    between atoms: _108  and  _110
REMARK   47  A    between atoms: _110  and  _111
REMARK   48  A    between atoms: _110  and  _113
REMARK   49  A    between atoms: _113  and  _114
REMARK   50  A    between atoms: _117  and  _119
REMARK   51  A    between atoms: _119  and  _120
REMARK   52  A    between atoms: _119  and  _122
REMARK   53  A    between atoms: _122  and  _123
REMARK   54  A    between atoms: _123  and  _124
REMARK   55  A    between atoms: _124  and  _125
REMARK   56  A    between atoms: _134  and  _136
REMARK   57  A    between atoms: _136  and  _137
REMARK   58  A    between atoms: _136  and  _139
REMARK   59  A    between atoms: _139  and  _140
REMARK   60  A    between atoms: _140  and  _141
REMARK   61  A    between atoms: _141  and  _142
REMARK   62  A    between atoms: _151  and  _153
REMARK   63  A    between atoms: _153  and  _154
REMARK   64  A    between atoms: _157  and  _159
REMARK   65  A    between atoms: _159  and  _160
REMARK   66  A    between atoms: _163  and  _165
REMARK   67  A    between atoms: _165  and  _166
REMARK   68  A    between atoms: _165  and  _168
REMARK   69  A    between atoms: _168  and  _169
REMARK   70  A    between atoms: _172  and  _174
REMARK   71  A    between atoms: _174  and  _175
REMARK   72  A    between atoms: _174  and  _177
REMARK   73  A    between atoms: _177  and  _178
REMARK   74  A    between atoms: _183  and  _185
REMARK   75  A    between atoms: _185  and  _186
REMARK   76  A    between atoms: _185  and  _188
REMARK   77  A    between atoms: _189  and  _190
REMARK   78  A    between atoms: _195  and  _197
REMARK   79  A    between atoms: _197  and  _198
REMARK   80  A    between atoms: _197  and  _200
REMARK   81  A    between atoms: _203  and  _205
REMARK   82  A    between atoms: _205  and  _206
REMARK   83  A    between atoms: _205  and  _208
REMARK   84  A    between atoms: _208  and  _209
REMARK   85  A    between atoms: _215  and  _217
REMARK   86  A    between atoms: _217  and  _218
REMARK   87  A    between atoms: _217  and  _220
REMARK   88  A    between atoms: _220  and  _221
REMARK   89  A    between atoms: _221  and  _222
REMARK   90  A    between atoms: _224  and  _226
REMARK   91  A    between atoms: _226  and  _227
REMARK   92  A    between atoms: _229  and  _231
REMARK   93  A    between atoms: _231  and  _232
REMARK   94  A    between atoms: _231  and  _234
REMARK   95  A    between atoms: _234  and  _235
REMARK   96  A    between atoms: _235  and  _236
REMARK   97  A    between atoms: _239  and  _241
REMARK   98  A    between atoms: _241  and  _242
REMARK   99  A    between atoms: _244  and  _246
REMARK  100  A    between atoms: _246  and  _247
REMARK  101  A    between atoms: _246  and  _249
REMARK  102  A    between atoms: _252  and  _254
REMARK  103  A    between atoms: _254  and  _255
REMARK  104  A    between atoms: _258  and  _260
REMARK  105  A    between atoms: _260  and  _261
REMARK  106  A    between atoms: _260  and  _263
REMARK  107  A    between atoms: _263  and  _264
REMARK  108  A    between atoms: _270  and  _272
REMARK  109  A    between atoms: _272  and  _273
REMARK  110  A    between atoms: _272  and  _275
REMARK  111  A    between atoms: _275  and  _276
REMARK  112  A    between atoms: _278  and  _280
REMARK  113  A    between atoms: _280  and  _281
REMARK  114  A    between atoms: _280  and  _283
REMARK  115  A    between atoms: _283  and  _284
REMARK  116  A    between atoms: _287  and  _289
REMARK  117  A    between atoms: _289  and  _290
REMARK  118  A    between atoms: _289  and  _292
REMARK  119  A    between atoms: _292  and  _293
REMARK  120  A    between atoms: _296  and  _298
REMARK  121  A    between atoms: _298  and  _299
REMARK  122  A    between atoms: _298  and  _301
REMARK  123  A    between atoms: _301  and  _302
REMARK  124  A    between atoms: _302  and  _303
REMARK  125  A    between atoms: _308  and  _310
REMARK  126  A    between atoms: _310  and  _311
REMARK  127  A    between atoms: _310  and  _313
REMARK  128  A    between atoms: _313  and  _314
REMARK  129  A    between atoms: _317  and  _319
REMARK  130  A    between atoms: _319  and  _320
REMARK  131  A    between atoms: _319  and  _322
REMARK  132  A    between atoms: _325  and  _327
REMARK  133  A    between atoms: _327  and  _328
REMARK  134  A    between atoms: _327  and  _330
REMARK  135  A    between atoms: _330  and  _331
REMARK                            x       y       z     vdW  Elec       q    Type
REMARK                         _______ _______ _______ _____ _____    ______ ____
ROOT
ATOM      1  CA  VAL A   5      22.828   1.920   2.724  0.00  0.00    +0.149 C 
ENDROOT
BRANCH   1   2
ATOM      2  C   VAL A   5      23.978   1.199   3.436  0.00  0.00    +0.241 C 
ATOM      3  N   TYR A   6      24.222   1.720   4.599  0.00  0.00    -0.297 N 
ATOM      4  H   TYR A   6      23.663   2.534   4.925  0.00  0.00    +0.150 HD
ATOM      5  O   VAL A   5      24.659   0.300   2.955  0.00  0.00    -0.273 OA
BRANCH   3   6
ATOM      6  CA  TYR A   6      25.259   1.184   5.443  0.00  0.00    +0.153 C 
BRANCH   6   7
ATOM      7  C   TYR A   6      25.150  -0.311   5.582  0.00  0.00    +0.241 C 
ATOM      8  N   ASP A   7      23.948  -0.809   5.915  0.00  0.00    -0.297 N 
ATOM      9  H   ASP A   7      23.131  -0.181   6.054  0.00  0.00    +0.150 HD
ATOM     10  O   TYR A   6      26.126  -1.052   5.440  0.00  0.00    -0.273 OA
BRANCH   8  11
ATOM     11  CA  ASP A   7      23.815  -2.271   6.079  0.00  0.00    +0.160 C 
BRANCH  11  12
ATOM     12  C   ASP A   7      23.938  -3.028   4.786  0.00  0.00    +0.241 C 
ATOM     13  O   ASP A   7      24.280  -4.212   4.757  0.00  0.00    -0.273 OA
ATOM     14  N   SER A   8      23.803  -2.339   3.660  0.00  0.00    -0.295 N 
ATOM     15  H   SER A   8      23.549  -1.331   3.640  0.00  0.00    +0.150 HD
BRANCH  14  16
ATOM     16  CA  SER A   8      24.040  -3.114   2.464  0.00  0.00    +0.178 C 
BRANCH  16  17
ATOM     17  C   SER A   8      25.525  -3.236   2.145  0.00  0.00    +0.243 C 
ATOM     18  N   LEU A   9      26.406  -2.532   2.827  0.00  0.00    -0.298 N 
ATOM     19  H   LEU A   9      26.125  -1.958   3.647  0.00  0.00    +0.150 HD
ATOM     20  O   SER A   8      25.920  -3.943   1.231  0.00  0.00    -0.273 OA
BRANCH  18  21
ATOM     21  CA  LEU A   9      27.810  -2.595   2.375  0.00  0.00    +0.137 C 
BRANCH  21  22
ATOM     22  C   LEU A   9      28.663  -3.623   3.033  0.00  0.00    +0.227 C 
ATOM     23  O   LEU A   9      28.290  -4.080   4.099  0.00  0.00    -0.286 OA
ENDBRANCH  21  22
BRANCH  21  24
ATOM     24  CB  LEU A   9      28.535  -1.318   2.836  0.00  0.00    +0.028 C 
BRANCH  24  25
ATOM     25  CG  LEU A   9      27.925  -0.030   2.204  0.00  0.00    +0.002 C 
ATOM     26  CD2 LEU A   9      28.342   1.264   2.903  0.00  0.00    +0.000 C 
ATOM     27  CD1 LEU A   9      28.414   0.174   0.783  0.00  0.00    +0.000 C 
ENDBRANCH  24  25
ENDBRANCH  21  24
ENDBRANCH  18  21
ENDBRANCH  16  17
BRANCH  16  28
ATOM     28  CB  SER A   8      23.538  -2.413   1.203  0.00  0.00    +0.166 C 
BRANCH  28  29
ATOM     29  OG  SER A   8      24.154  -1.165   0.976  0.00  0.00    -0.380 OA
ATOM     30  H   SER A   8      23.974  -0.565   1.743  0.00  0.00    +0.211 HD
ENDBRANCH  28  29
ENDBRANCH  16  28
ENDBRANCH  14  16
ENDBRANCH  11  12
BRANCH  11  31
ATOM     31  CB  ASP A   7      22.452  -2.710   6.521  0.00  0.00    +0.143 C 
BRANCH  31  32
ATOM     32  CG  ASP A   7      22.190  -2.341   7.948  0.00  0.00    +0.367 C 
ATOM     33  OD2 ASP A   7      23.083  -2.017   8.711  0.00  0.00    -0.246 OA
ATOM     34  OD1 ASP A   7      20.906  -2.351   8.221  0.00  0.00    -0.246 OA
ENDBRANCH  31  32
ENDBRANCH  11  31
ENDBRANCH   8  11
ENDBRANCH   6   7
BRANCH   6  35
ATOM     35  CB  TYR A   6      25.099   1.857   6.823  0.00  0.00    +0.055 C 
BRANCH  35  36
ATOM     36  CG  TYR A   6      26.211   1.445   7.765  0.00  0.00    -0.020 A 
ATOM     37  CD2 TYR A   6      26.006   0.384   8.643  0.00  0.00    -0.001 A 
ATOM     38  CE2 TYR A   6      26.985  -0.027   9.544  0.00  0.00    +0.036 A 
ATOM     39  CZ  TYR A   6      28.229   0.603   9.508  0.00  0.00    +0.134 A 
ATOM     40  CE1 TYR A   6      28.480   1.630   8.599  0.00  0.00    +0.036 A 
ATOM     41  CD1 TYR A   6      27.484   2.015   7.702  0.00  0.00    -0.001 A 
BRANCH  39  42
ATOM     42  OH  TYR A   6      29.200   0.191  10.375  0.00  0.00    -0.506 OA
ATOM     43  HH  TYR A   6      30.019   0.728  10.231  0.00  0.00    +0.292 HD
ENDBRANCH  39  42
ENDBRANCH  35  36
ENDBRANCH   6  35
ENDBRANCH   3   6
ENDBRANCH   1   2
BRANCH   1  45
ATOM     44  C   PRO A   4      21.034   0.879   3.869  0.00  0.00    +0.241 C 
ATOM     45  N   VAL A   5      21.690   1.994   3.595  0.00  0.00    -0.297 N 
ATOM     46  H   VAL A   5      21.388   2.903   4.001  0.00  0.00    +0.150 HD
ATOM     47  O   PRO A   4      21.414  -0.164   3.390  0.00  0.00    -0.273 OA
BRANCH  44  54
ATOM     48  C   LYS A   3      20.934   1.805   6.731  0.00  0.00    +0.244 C 
ATOM     49  O   LYS A   3      21.722   0.864   6.668  0.00  0.00    -0.273 OA
ATOM     50  N   PRO A   4      19.953   1.913   5.871  0.00  0.00    -0.272 N 
ATOM     51  CD  PRO A   4      19.026   3.028   5.709  0.00  0.00    +0.094 C 
ATOM     52  CG  PRO A   4      18.032   2.569   4.664  0.00  0.00    +0.024 C 
ATOM     53  CB  PRO A   4      18.502   1.258   4.074  0.00  0.00    +0.031 C 
ATOM     54  CA  PRO A   4      19.819   0.936   4.804  0.00  0.00    +0.152 C 
BRANCH  48  55
ATOM     55  CA  LYS A   3      20.985   2.885   7.788  0.00  0.00    +0.149 C 
BRANCH  55  57
ATOM     56  C   LEU A   2      21.732   4.633   6.341  0.00  0.00    +0.241 C 
ATOM     57  N   LYS A   3      20.968   4.241   7.321  0.00  0.00    -0.297 N 
ATOM     58  H   LYS A   3      20.331   4.927   7.775  0.00  0.00    +0.150 HD
ATOM     59  O   LEU A   2      22.491   3.883   5.761  0.00  0.00    -0.273 OA
BRANCH  56  60
ATOM     60  CA  LEU A   2      21.688   6.107   6.026  0.00  0.00    +0.149 C 
BRANCH  60  62
ATOM     61  C   LYS A   1      19.656   6.631   4.880  0.00  0.00    +0.238 C 
ATOM     62  N   LEU A   2      20.384   6.730   5.981  0.00  0.00    -0.297 N 
ATOM     63  H   LEU A   2      20.022   7.251   6.805  0.00  0.00    +0.150 HD
ATOM     64  O   LYS A   1      20.039   5.990   3.928  0.00  0.00    -0.274 OA
BRANCH  61  65
ATOM     65  CA  LYS A   1      18.300   7.341   4.871  0.00  0.00    +0.145 C 
BRANCH  65  66
ATOM     66  N   LYS A   1      17.740   7.347   6.188  0.00  0.00    -0.238 NA
ATOM     67  H   LYS A   1      17.817   8.186   6.798  0.00  0.00    +0.142 HD
ENDBRANCH  65  66
BRANCH  65  68
ATOM     68  CB  LYS A   1      18.436   8.759   4.360  0.00  0.00    +0.026 C 
BRANCH  68  69
ATOM     69  CG  LYS A   1      17.600   8.966   3.098  0.00  0.00    -0.000 C 
BRANCH  69  70
ATOM     70  CD  LYS A   1      16.113   9.263   3.354  0.00  0.00    -0.024 C 
BRANCH  70  71
ATOM     71  CE  LYS A   1      15.118   8.370   2.587  0.00  0.00    -0.086 C 
BRANCH  71  72
ATOM     72  NZ  LYS A   1      15.572   7.893   1.256  0.00  0.00    +0.380 N 
ATOM     73  HZ1 LYS A   1      16.441   7.332   1.368  0.00  0.00    -0.089 HD
ATOM     74  HZ2 LYS A   1      14.830   7.303   0.829  0.00  0.00    -0.089 HD
ATOM     75  HZ3 LYS A   1      15.763   8.711   0.642  0.00  0.00    -0.089 HD
ENDBRANCH  71  72
ENDBRANCH  70  71
ENDBRANCH  69  70
ENDBRANCH  68  69
ENDBRANCH  65  68
ENDBRANCH  61  65
ENDBRANCH  60  62
BRANCH  60  76
ATOM     76  CB  LEU A   2      22.591   6.813   7.029  0.00  0.00    +0.029 C 
BRANCH  76  77
ATOM     77  CG  LEU A   2      22.667   8.306   6.763  0.00  0.00    +0.002 C 
ATOM     78  CD2 LEU A   2      23.644   8.986   7.714  0.00  0.00    +0.000 C 
ATOM     79  CD1 LEU A   2      23.278   8.494   5.399  0.00  0.00    +0.000 C 
ENDBRANCH  76  77
ENDBRANCH  60  76
ENDBRANCH  56  60
ENDBRANCH  55  57
BRANCH  55  80
ATOM     80  CB  LYS A   3      19.896   2.713   8.811  0.00  0.00    +0.029 C 
BRANCH  80  81
ATOM     81  CG  LYS A   3      20.170   1.379   9.468  0.00  0.00    +0.000 C 
BRANCH  81  82
ATOM     82  CD  LYS A   3      19.096   0.854  10.400  0.00  0.00    -0.024 C 
BRANCH  82  83
ATOM     83  CE  LYS A   3      19.573  -0.448  11.067  0.00  0.00    -0.086 C 
BRANCH  83  84
ATOM     84  NZ  LYS A   3      18.955  -1.704  10.619  0.00  0.00    +0.380 N 
ATOM     85  HZ1 LYS A   3      19.366  -2.499  11.148  0.00  0.00    -0.089 HD
ATOM     86  HZ2 LYS A   3      17.930  -1.665  10.791  0.00  0.00    -0.089 HD
ATOM     87  HZ3 LYS A   3      19.133  -1.833   9.602  0.00  0.00    -0.089 HD
ENDBRANCH  83  84
ENDBRANCH  82  83
ENDBRANCH  81  82
ENDBRANCH  80  81
ENDBRANCH  55  80
ENDBRANCH  48  55
ENDBRANCH  44  54
ENDBRANCH   1  45
BRANCH   1  88
ATOM     88  CB  VAL A   5      23.219   3.335   2.167  0.00  0.00    +0.027 C 
ATOM     89  CG2 VAL A   5      21.975   4.117   1.639  0.00  0.00    +0.002 C 
ATOM     90  CG1 VAL A   5      24.402   3.117   1.174  0.00  0.00    +0.002 C 
ENDBRANCH   1  88
TORSDOF 39
REMARK  Name = ../refined-set-2016/1li6/1li6_pocket.pdb
REMARK  135 active torsions:
REMARK  status: ('A' for Active; 'I' for Inactive)
REMARK    1  A    between atoms: _1  and  _3
REMARK    2  A    between atoms: _3  and  _4
REMARK    3  A    between atoms: _7  and  _9
REMARK    4  A    between atoms: _9  and  _10
REMARK    5  A    between atoms: _9  and  _12
REMARK    6  A    between atoms: _12  and  _13
REMARK    7  A    between atoms: _16  and  _18
REMARK    8  A    between atoms: _18  and  _19
REMARK    9  A    between atoms: _18  and  _21
REMARK   10  A    between atoms: _21  and  _22
REMARK   11  A    between atoms: _27  and  _29
REMARK   12  A    between atoms: _29  and  _30
REMARK   13  A    between atoms: _29  and  _32
REMARK   14  A    between atoms: _32  and  _33
REMARK   15  A    between atoms: _33  and  _34
REMARK   16  A    between atoms: _34  and  _35
REMARK   17  A    between atoms: _35  and  _36
REMARK   18  A    between atoms: _40  and  _42
REMARK   19  A    between atoms: _42  and  _43
REMARK   20  A    between atoms: _42  and  _45
REMARK   21  A    between atoms: _45  and  _46
REMARK   22  A    between atoms: _49  and  _51
REMARK   23  A    between atoms: _51  and  _52
REMARK   24  A    between atoms: _51  and  _54
REMARK   25  A    between atoms: _54  and  _55
REMARK   26  A    between atoms: _55  and  _56
REMARK   27  A    between atoms: _56  and  _57
REMARK   28  A    between atoms: _57  and  _58
REMARK   29  A    between atoms: _63  and  _64
REMARK   30  A    between atoms: _69  and  _71
REMARK   31  A    between atoms: _71  and  _72
REMARK   32  A    between atoms: _71  and  _74
REMARK   33  A    between atoms: _77  and  _79
REMARK   34  A    between atoms: _79  and  _80
REMARK   35  A    between atoms: _79  and  _82
REMARK   36  A    between atoms: _82  and  _83
REMARK   37  A    between atoms: _88  and  _89
REMARK   38  A    between atoms: _91  and  _93
REMARK   39  A    between atoms: _93  and  _94
REMARK   40  A    between atoms: _93  and  _96
REMARK   41  A    between atoms: _96  and  _97
REMARK   42  A    between atoms: _100  and  _102
REMARK   43  A    between atoms: _102  and  _103
REMARK   44  A    between atoms: _102  and  _105
REMARK   45  A    between atoms: _105  and  _106
REMARK   46  A    between atoms: _108  and  _110
REMARK   47  A    between atoms: _110  and  _111
REMARK   48  A    between atoms: _110  and  _113
REMARK   49  A    between atoms: _113  and  _114
REMARK   50  A    between atoms: _117  and  _119
REMARK   51  A    between atoms: _119  and  _120
REMARK   52  A    between atoms: _119  and  _122
REMARK   53  A    between atoms: _122  and  _123
REMARK   54  A    between atoms: _123  and  _124
REMARK   55  A    between atoms: _124  and  _125
REMARK   56  A    between atoms: _134  and  _136
REMARK   57  A    between atoms: _136  and  _137
REMARK   58  A    between atoms: _136  and  _139
REMARK   59  A    between atoms: _139  and  _140
REMARK   60  A    between atoms: _140  and  _141
REMARK   61  A    between atoms: _141  and  _142
REMARK   62  A    between atoms: _151  and  _153
REMARK   63  A    between atoms: _153  and  _154
REMARK   64  A    between atoms: _157  and  _159
REMARK   65  A    between atoms: _159  and  _160
REMARK   66  A    between atoms: _163  and  _165
REMARK   67  A    between atoms: _165  and  _166
REMARK   68  A    between atoms: _165  and  _168
REMARK   69  A    between atoms: _168  and  _169
REMARK   70  A    between atoms: _172  and  _174
REMARK   71  A    between atoms: _174  and  _175
REMARK   72  A    between atoms: _174  and  _177
REMARK   73  A    between atoms: _177  and  _178
REMARK   74  A    between atoms: _183  and  _185
REMARK   75  A    between atoms: _185  and  _186
REMARK   76  A    between atoms: _185  and  _188
REMARK   77  A    between atoms: _189  and  _190
REMARK   78  A    between atoms: _195  and  _197
REMARK   79  A    between atoms: _197  and  _198
REMARK   80  A    between atoms: _197  and  _200
REMARK   81  A    between atoms: _203  and  _205
REMARK   82  A    between atoms: _205  and  _206
REMARK   83  A    between atoms: _205  and  _208
REMARK   84  A    between atoms: _208  and  _209
REMARK   85  A    between atoms: _215  and  _217
REMARK   86  A    between atoms: _217  and  _218
REMARK   87  A    between atoms: _217  and  _220
REMARK   88  A    between atoms: _220  and  _221
REMARK   89  A    between atoms: _221  and  _222
REMARK   90  A    between atoms: _224  and  _226
REMARK   91  A    between atoms: _226  and  _227
REMARK   92  A    between atoms: _229  and  _231
REMARK   93  A    between atoms: _231  and  _232
REMARK   94  A    between atoms: _231  and  _234
REMARK   95  A    between atoms: _234  and  _235
REMARK   96  A    between atoms: _235  and  _236
REMARK   97  A    between atoms: _239  and  _241
REMARK   98  A    between atoms: _241  and  _242
REMARK   99  A    between atoms: _244  and  _246
REMARK  100  A    between atoms: _246  and  _247
REMARK  101  A    between atoms: _246  and  _249
REMARK  102  A    between atoms: _252  and  _254
REMARK  103  A    between atoms: _254  and  _255
REMARK  104  A    between atoms: _258  and  _260
REMARK  105  A    between atoms: _260  and  _261
REMARK  106  A    between atoms: _260  and  _263
REMARK  107  A    between atoms: _263  and  _264
REMARK  108  A    between atoms: _270  and  _272
REMARK  109  A    between atoms: _272  and  _273
REMARK  110  A    between atoms: _272  and  _275
REMARK  111  A    between atoms: _275  and  _276
REMARK  112  A    between atoms: _278  and  _280
REMARK  113  A    between atoms: _280  and  _281
REMARK  114  A    between atoms: _280  and  _283
REMARK  115  A    between atoms: _283  and  _284
REMARK  116  A    between atoms: _287  and  _289
REMARK  117  A    between atoms: _289  and  _290
REMARK  118  A    between atoms: _289  and  _292
REMARK  119  A    between atoms: _292  and  _293
REMARK  120  A    between atoms: _296  and  _298
REMARK  121  A    between atoms: _298  and  _299
REMARK  122  A    between atoms: _298  and  _301
REMARK  123  A    between atoms: _301  and  _302
REMARK  124  A    between atoms: _302  and  _303
REMARK  125  A    between atoms: _308  and  _310
REMARK  126  A    between atoms: _310  and  _311
REMARK  127  A    between atoms: _310  and  _313
REMARK  128  A    between atoms: _313  and  _314
REMARK  129  A    between atoms: _317  and  _319
REMARK  130  A    between atoms: _319  and  _320
REMARK  131  A    between atoms: _319  and  _322
REMARK  132  A    between atoms: _325  and  _327
REMARK  133  A    between atoms: _327  and  _328
REMARK  134  A    between atoms: _327  and  _330
REMARK  135  A    between atoms: _330  and  _331
REMARK                            x       y       z     vdW  Elec       q    Type
REMARK                         _______ _______ _______ _____ _____    ______ ____
ROOT
ATOM      1  C   ARG A   1      32.439   0.789   3.775  0.00  0.00    +0.238 C 
ATOM      2  N   ARG A   2      32.057   0.011   4.807  0.00  0.00    -0.298 N 
ATOM      3  H   ARG A   2      32.236  -1.013   4.774  0.00  0.00    +0.150 HD
ATOM      4  O   ARG A   1      32.213   1.998   3.746  0.00  0.00    -0.274 OA
ENDROOT
BRANCH   1   5
ATOM      5  CA  ARG A   1      33.174   0.104   2.622  0.00  0.00    +0.145 C 
BRANCH   5   6
ATOM      6  N   ARG A   1      33.923  -1.074   3.091  0.00  0.00    -0.238 NA
ATOM      7  H   ARG A   1      33.702  -2.019   2.717  0.00  0.00    +0.142 HD
ENDBRANCH   5   6
BRANCH   5   8
ATOM      8  CB  ARG A   1      32.271  -0.239   1.414  0.00  0.00    +0.030 C 
BRANCH   8   9
ATOM      9  CG  ARG A   1      33.052  -0.629   0.174  0.00  0.00    +0.045 C 
BRANCH   9  10
ATOM     10  CD  ARG A   1      32.143  -0.731  -1.036  0.00  0.00    +0.174 C 
BRANCH  10  11
ATOM     11  NE  ARG A   1      32.841  -0.845  -2.320  0.00  0.00    -0.265 N 
ATOM     12  CZ  ARG A   1      33.229  -2.026  -2.796  0.00  0.00    +0.342 C 
ATOM     13  NH2 ARG A   1      33.021  -3.142  -2.100  0.00  0.00    -0.292 N 
ATOM     14 HH21 ARG A   1      32.551  -3.097  -1.174  0.00  0.00    +0.255 HD
ATOM     15 HH22 ARG A   1      33.329  -4.059  -2.483  0.00  0.00    +0.255 HD
ATOM     16  NH1 ARG A   1      33.822  -2.097  -3.976  0.00  0.00    -0.292 N 
ATOM     17 HH11 ARG A   1      34.126  -3.018  -4.350  0.00  0.00    +0.255 HD
ATOM     18 HH12 ARG A   1      33.984  -1.232  -4.529  0.00  0.00    +0.255 HD
ATOM     19  HE  ARG A   1      33.037   0.015  -2.871  0.00  0.00    +0.259 HD
ENDBRANCH  10  11
ENDBRANCH   9  10
ENDBRANCH   8   9
ENDBRANCH   5   8
ENDBRANCH   1   5
BRANCH   2  20
ATOM     20  CA  ARG A   2      31.392   0.594   5.976  0.00  0.00    +0.137 C 
BRANCH  20  21
ATOM     21  C   ARG A   2      32.369   1.501   6.721  0.00  0.00    +0.227 C 
ATOM     22  O   ARG A   2      31.950   2.517   7.274  0.00  0.00    -0.286 OA
ENDBRANCH  20  21
BRANCH  20  23
ATOM     23  CB  ARG A   2      30.918  -0.402   7.010  0.00  0.00    +0.031 C 
BRANCH  23  24
ATOM     24  CG  ARG A   2      29.679  -1.164   6.513  0.00  0.00    +0.045 C 
BRANCH  24  25
ATOM     25  CD  ARG A   2      29.282  -2.297   7.438  0.00  0.00    +0.174 C 
BRANCH  25  26
ATOM     26  NE  ARG A   2      28.054  -2.911   6.941  0.00  0.00    -0.265 N 
ATOM     27  CZ  ARG A   2      27.469  -3.917   7.560  0.00  0.00    +0.342 C 
ATOM     28  NH2 ARG A   2      28.017  -4.391   8.658  0.00  0.00    -0.292 N 
ATOM     29 HH21 ARG A   2      27.571  -5.184   9.161  0.00  0.00    +0.255 HD
ATOM     30 HH22 ARG A   2      28.896  -3.972   9.023  0.00  0.00    +0.255 HD
ATOM     31  NH1 ARG A   2      26.376  -4.504   7.052  0.00  0.00    -0.292 N 
ATOM     32 HH11 ARG A   2      25.929  -5.296   7.556  0.00  0.00    +0.255 HD
ATOM     33 HH12 ARG A   2      25.975  -4.167   6.154  0.00  0.00    +0.255 HD
ATOM     34  HE  ARG A   2      27.626  -2.542   6.068  0.00  0.00    +0.259 HD
ENDBRANCH  25  26
ENDBRANCH  24  25
ENDBRANCH  23  24
ENDBRANCH  20  23
ENDBRANCH   2  20
TORSDOF 12
REMARK  Name = ../refined-set-2016/1li6/1li6_pocket.pdb
REMARK  135 active torsions:
REMARK  status: ('A' for Active; 'I' for Inactive)
REMARK    1  A    between atoms: _1  and  _3
REMARK    2  A    between atoms: _3  and  _4
REMARK    3  A    between atoms: _7  and  _9
REMARK    4  A    between atoms: _9  and  _10
REMARK    5  A    between atoms: _9  and  _12
REMARK    6  A    between atoms: _12  and  _13
REMARK    7  A    between atoms: _16  and  _18
REMARK    8  A    between atoms: _18  and  _19
REMARK    9  A    between atoms: _18  and  _21
REMARK   10  A    between atoms: _21  and  _22
REMARK   11  A    between atoms: _27  and  _29
REMARK   12  A    between atoms: _29  and  _30
REMARK   13  A    between atoms: _29  and  _32
REMARK   14  A    between atoms: _32  and  _33
REMARK   15  A    between atoms: _33  and  _34
REMARK   16  A    between atoms: _34  and  _35
REMARK   17  A    between atoms: _35  and  _36
REMARK   18  A    between atoms: _40  and  _42
REMARK   19  A    between atoms: _42  and  _43
REMARK   20  A    between atoms: _42  and  _45
REMARK   21  A    between atoms: _45  and  _46
REMARK   22  A    between atoms: _49  and  _51
REMARK   23  A    between atoms: _51  and  _52
REMARK   24  A    between atoms: _51  and  _54
REMARK   25  A    between atoms: _54  and  _55
REMARK   26  A    between atoms: _55  and  _56
REMARK   27  A    between atoms: _56  and  _57
REMARK   28  A    between atoms: _57  and  _58
REMARK   29  A    between atoms: _63  and  _64
REMARK   30  A    between atoms: _69  and  _71
REMARK   31  A    between atoms: _71  and  _72
REMARK   32  A    between atoms: _71  and  _74
REMARK   33  A    between atoms: _77  and  _79
REMARK   34  A    between atoms: _79  and  _80
REMARK   35  A    between atoms: _79  and  _82
REMARK   36  A    between atoms: _82  and  _83
REMARK   37  A    between atoms: _88  and  _89
REMARK   38  A    between atoms: _91  and  _93
REMARK   39  A    between atoms: _93  and  _94
REMARK   40  A    between atoms: _93  and  _96
REMARK   41  A    between atoms: _96  and  _97
REMARK   42  A    between atoms: _100  and  _102
REMARK   43  A    between atoms: _102  and  _103
REMARK   44  A    between atoms: _102  and  _105
REMARK   45  A    between atoms: _105  and  _106
REMARK   46  A    between atoms: _108  and  _110
REMARK   47  A    between atoms: _110  and  _111
REMARK   48  A    between atoms: _110  and  _113
REMARK   49  A    between atoms: _113  and  _114
REMARK   50  A    between atoms: _117  and  _119
REMARK   51  A    between atoms: _119  and  _120
REMARK   52  A    between atoms: _119  and  _122
REMARK   53  A    between atoms: _122  and  _123
REMARK   54  A    between atoms: _123  and  _124
REMARK   55  A    between atoms: _124  and  _125
REMARK   56  A    between atoms: _134  and  _136
REMARK   57  A    between atoms: _136  and  _137
REMARK   58  A    between atoms: _136  and  _139
REMARK   59  A    between atoms: _139  and  _140
REMARK   60  A    between atoms: _140  and  _141
REMARK   61  A    between atoms: _141  and  _142
REMARK   62  A    between atoms: _151  and  _153
REMARK   63  A    between atoms: _153  and  _154
REMARK   64  A    between atoms: _157  and  _159
REMARK   65  A    between atoms: _159  and  _160
REMARK   66  A    between atoms: _163  and  _165
REMARK   67  A    between atoms: _165  and  _166
REMARK   68  A    between atoms: _165  and  _168
REMARK   69  A    between atoms: _168  and  _169
REMARK   70  A    between atoms: _172  and  _174
REMARK   71  A    between atoms: _174  and  _175
REMARK   72  A    between atoms: _174  and  _177
REMARK   73  A    between atoms: _177  and  _178
REMARK   74  A    between atoms: _183  and  _185
REMARK   75  A    between atoms: _185  and  _186
REMARK   76  A    between atoms: _185  and  _188
REMARK   77  A    between atoms: _189  and  _190
REMARK   78  A    between atoms: _195  and  _197
REMARK   79  A    between atoms: _197  and  _198
REMARK   80  A    between atoms: _197  and  _200
REMARK   81  A    between atoms: _203  and  _205
REMARK   82  A    between atoms: _205  and  _206
REMARK   83  A    between atoms: _205  and  _208
REMARK   84  A    between atoms: _208  and  _209
REMARK   85  A    between atoms: _215  and  _217
REMARK   86  A    between atoms: _217  and  _218
REMARK   87  A    between atoms: _217  and  _220
REMARK   88  A    between atoms: _220  and  _221
REMARK   89  A    between atoms: _221  and  _222
REMARK   90  A    between atoms: _224  and  _226
REMARK   91  A    between atoms: _226  and  _227
REMARK   92  A    between atoms: _229  and  _231
REMARK   93  A    between atoms: _231  and  _232
REMARK   94  A    between atoms: _231  and  _234
REMARK   95  A    between atoms: _234  and  _235
REMARK   96  A    between atoms: _235  and  _236
REMARK   97  A    between atoms: _239  and  _241
REMARK   98  A    between atoms: _241  and  _242
REMARK   99  A    between atoms: _244  and  _246
REMARK  100  A    between atoms: _246  and  _247
REMARK  101  A    between atoms: _246  and  _249
REMARK  102  A    between atoms: _252  and  _254
REMARK  103  A    between atoms: _254  and  _255
REMARK  104  A    between atoms: _258  and  _260
REMARK  105  A    between atoms: _260  and  _261
REMARK  106  A    between atoms: _260  and  _263
REMARK  107  A    between atoms: _263  and  _264
REMARK  108  A    between atoms: _270  and  _272
REMARK  109  A    between atoms: _272  and  _273
REMARK  110  A    between atoms: _272  and  _275
REMARK  111  A    between atoms: _275  and  _276
REMARK  112  A    between atoms: _278  and  _280
REMARK  113  A    between atoms: _280  and  _281
REMARK  114  A    between atoms: _280  and  _283
REMARK  115  A    between atoms: _283  and  _284
REMARK  116  A    between atoms: _287  and  _289
REMARK  117  A    between atoms: _289  and  _290
REMARK  118  A    between atoms: _289  and  _292
REMARK  119  A    between atoms: _292  and  _293
REMARK  120  A    between atoms: _296  and  _298
REMARK  121  A    between atoms: _298  and  _299
REMARK  122  A    between atoms: _298  and  _301
REMARK  123  A    between atoms: _301  and  _302
REMARK  124  A    between atoms: _302  and  _303
REMARK  125  A    between atoms: _308  and  _310
REMARK  126  A    between atoms: _310  and  _311
REMARK  127  A    between atoms: _310  and  _313
REMARK  128  A    between atoms: _313  and  _314
REMARK  129  A    between atoms: _317  and  _319
REMARK  130  A    between atoms: _319  and  _320
REMARK  131  A    between atoms: _319  and  _322
REMARK  132  A    between atoms: _325  and  _327
REMARK  133  A    between atoms: _327  and  _328
REMARK  134  A    between atoms: _327  and  _330
REMARK  135  A    between atoms: _330  and  _331
REMARK                            x       y       z     vdW  Elec       q    Type
REMARK                         _______ _______ _______ _____ _____    ______ ____
ROOT
ATOM      1  C   ASN A   4      34.183   9.447   7.405  0.00  0.00    +0.241 C 
ATOM      2  O   ASN A   4      34.350  10.525   7.919  0.00  0.00    -0.273 OA
ATOM      3  N   GLN A   5      33.371   9.278   6.388  0.00  0.00    -0.294 N 
ATOM      4  H   GLN A   5      33.218   8.345   5.954  0.00  0.00    +0.150 HD
ENDROOT
BRANCH   3   5
ATOM      5  CA  GLN A   5      32.702  10.466   5.906  0.00  0.00    +0.171 C 
BRANCH   5   6
ATOM      6  C   GLN A   5      31.789  11.086   6.972  0.00  0.00    +0.245 C 
ATOM      7  N   VAL A   6      31.075  10.208   7.693  0.00  0.00    -0.297 N 
ATOM      8  H   VAL A   6      31.172   9.185   7.536  0.00  0.00    +0.150 HD
ATOM      9  O   GLN A   5      31.643  12.329   7.108  0.00  0.00    -0.273 OA
BRANCH   7  10
ATOM     10  CA  VAL A   6      30.165  10.723   8.697  0.00  0.00    +0.149 C 
BRANCH  10  11
ATOM     11  C   VAL A   6      30.920  11.366   9.819  0.00  0.00    +0.241 C 
ATOM     12  O   VAL A   6      30.494  12.367  10.322  0.00  0.00    -0.273 OA
ATOM     13  N   PHE A   7      32.058  10.806  10.195  0.00  0.00    -0.298 N 
ATOM     14  H   PHE A   7      32.383   9.931   9.737  0.00  0.00    +0.150 HD
BRANCH  13  15
ATOM     15  CA  PHE A   7      32.857  11.415  11.251  0.00  0.00    +0.141 C 
BRANCH  15  16
ATOM     16  C   PHE A   7      33.364  12.786  10.836  0.00  0.00    +0.227 C 
ATOM     17  O   PHE A   7      33.344  13.750  11.560  0.00  0.00    -0.286 OA
ENDBRANCH  15  16
BRANCH  15  18
ATOM     18  CB  PHE A   7      34.126  10.558  11.392  0.00  0.00    +0.054 C 
BRANCH  18  19
ATOM     19  CG  PHE A   7      34.977  10.957  12.537  0.00  0.00    -0.020 A 
ATOM     20  CD2 PHE A   7      34.956  10.313  13.773  0.00  0.00    -0.004 A 
ATOM     21  CE2 PHE A   7      35.836  10.636  14.806  0.00  0.00    -0.000 A 
ATOM     22  CZ  PHE A   7      36.796  11.631  14.637  0.00  0.00    -0.000 A 
ATOM     23  CE1 PHE A   7      36.806  12.273  13.402  0.00  0.00    -0.000 A 
ATOM     24  CD1 PHE A   7      35.945  11.929  12.352  0.00  0.00    -0.004 A 
ENDBRANCH  18  19
ENDBRANCH  15  18
ENDBRANCH  13  15
ENDBRANCH  10  11
BRANCH  10  25
ATOM     25  CB  VAL A   6      29.229   9.676   9.319  0.00  0.00    +0.027 C 
ATOM     26  CG2 VAL A   6      28.375  10.326  10.408  0.00  0.00    +0.002 C 
ATOM     27  CG1 VAL A   6      28.148   9.289   8.280  0.00  0.00    +0.002 C 
ENDBRANCH  10  25
ENDBRANCH   7  10
ENDBRANCH   5   6
BRANCH   5  28
ATOM     28  CB  GLN A   5      31.758  10.038   4.744  0.00  0.00    +0.007 C 
ATOM     29  CG  GLN A   5      31.973  10.703   3.390  0.00  0.00    +0.055 C 
BRANCH  29  30
ATOM     30  CD  GLN A   5      30.925  10.400   2.328  0.00  0.00    +0.243 C 
ATOM     31  OE1 GLN A   5      30.229   9.387   2.358  0.00  0.00    -0.270 OA
ATOM     32  NE2 GLN A   5      30.771  11.312   1.400  0.00  0.00    -0.325 N 
ATOM     33 HE21 GLN A   5      31.374  12.159   1.399  0.00  0.00    +0.145 HD
ATOM     34 HE22 GLN A   5      30.046  11.188   0.665  0.00  0.00    +0.145 HD
ENDBRANCH  29  30
ENDBRANCH   5  28
ENDBRANCH   3   5
BRANCH   1  35
ATOM     35  CA  ASN A   4      34.842   8.213   7.955  0.00  0.00    +0.158 C 
BRANCH  35  38
ATOM     36  C   ILE A   3      32.844   7.238   8.930  0.00  0.00    +0.241 C 
ATOM     37  O   ILE A   3      32.630   8.294   9.548  0.00  0.00    -0.273 OA
ATOM     38  N   ASN A   4      33.889   7.123   8.121  0.00  0.00    -0.297 N 
ATOM     39  H   ASN A   4      34.031   6.237   7.595  0.00  0.00    +0.150 HD
BRANCH  36  40
ATOM     40  CA  ILE A   3      31.947   5.996   9.037  0.00  0.00    +0.149 C 
BRANCH  40  42
ATOM     41  C   ALA A   2      31.156   6.098   6.778  0.00  0.00    +0.241 C 
ATOM     42  N   ILE A   3      31.717   5.372   7.763  0.00  0.00    -0.297 N 
ATOM     43  H   ILE A   3      31.979   4.378   7.605  0.00  0.00    +0.150 HD
ATOM     44  O   ALA A   2      30.780   7.247   6.940  0.00  0.00    -0.273 OA
BRANCH  41  45
ATOM     45  CA  ALA A   2      30.960   5.425   5.438  0.00  0.00    +0.149 C 
ATOM     46  CB  ALA A   2      29.662   4.572   5.446  0.00  0.00    +0.031 C 
BRANCH  45  48
ATOM     47  C   ALA A   1      33.308   5.357   4.780  0.00  0.00    +0.238 C 
ATOM     48  N   ALA A   2      32.157   4.677   5.057  0.00  0.00    -0.297 N 
ATOM     49  H   ALA A   2      32.132   3.639   4.998  0.00  0.00    +0.150 HD
ATOM     50  O   ALA A   1      33.364   6.603   4.851  0.00  0.00    -0.274 OA
BRANCH  47  51
ATOM     51  CA  ALA A   1      34.537   4.533   4.393  0.00  0.00    +0.145 C 
ATOM     52  CB  ALA A   1      34.464   4.348   2.892  0.00  0.00    +0.028 C 
BRANCH  51  53
ATOM     53  N   ALA A   1      34.555   3.275   5.162  0.00  0.00    -0.238 NA
ATOM     54  H   ALA A   1      34.479   2.355   4.682  0.00  0.00    +0.142 HD
ENDBRANCH  51  53
ENDBRANCH  47  51
ENDBRANCH  45  48
ENDBRANCH  41  45
ENDBRANCH  40  42
BRANCH  40  55
ATOM     55  CB  ILE A   3      32.428   4.917  10.022  0.00  0.00    +0.027 C 
ATOM     56  CG2 ILE A   3      32.727   5.473  11.411  0.00  0.00    +0.002 C 
BRANCH  55  57
ATOM     57  CG1 ILE A   3      31.368   3.833  10.206  0.00  0.00    +0.002 C 
ATOM     58  CD1 ILE A   3      31.901   2.569  10.821  0.00  0.00    +0.000 C 
ENDBRANCH  55  57
ENDBRANCH  40  55
ENDBRANCH  36  40
ENDBRANCH  35  38
BRANCH  35  59
ATOM     59  CB  ASN A   4      35.956   7.741   6.979  0.00  0.00    +0.114 C 
BRANCH  59  60
ATOM     60  CG  ASN A   4      37.200   8.609   6.921  0.00  0.00    +0.222 C 
ATOM     61  ND2 ASN A   4      38.391   8.016   6.985  0.00  0.00    -0.329 N 
ATOM     62 HD21 ASN A   4      38.453   6.987   7.124  0.00  0.00    +0.145 HD
ATOM     63 HD22 ASN A   4      39.259   8.582   6.896  0.00  0.00    +0.145 HD
ATOM     64  OD1 ASN A   4      37.074   9.825   6.758  0.00  0.00    -0.275 OA
ENDBRANCH  59  60
ENDBRANCH  35  59
ENDBRANCH   1  35
TORSDOF 23
REMARK  Name = ../refined-set-2016/1li6/1li6_pocket.pdb
REMARK  135 active torsions:
REMARK  status: ('A' for Active; 'I' for Inactive)
REMARK    1  A    between atoms: _1  and  _3
REMARK    2  A    between atoms: _3  and  _4
REMARK    3  A    between atoms: _7  and  _9
REMARK    4  A    between atoms: _9  and  _10
REMARK    5  A    between atoms: _9  and  _12
REMARK    6  A    between atoms: _12  and  _13
REMARK    7  A    between atoms: _16  and  _18
REMARK    8  A    between atoms: _18  and  _19
REMARK    9  A    between atoms: _18  and  _21
REMARK   10  A    between atoms: _21  and  _22
REMARK   11  A    between atoms: _27  and  _29
REMARK   12  A    between atoms: _29  and  _30
REMARK   13  A    between atoms: _29  and  _32
REMARK   14  A    between atoms: _32  and  _33
REMARK   15  A    between atoms: _33  and  _34
REMARK   16  A    between atoms: _34  and  _35
REMARK   17  A    between atoms: _35  and  _36
REMARK   18  A    between atoms: _40  and  _42
REMARK   19  A    between atoms: _42  and  _43
REMARK   20  A    between atoms: _42  and  _45
REMARK   21  A    between atoms: _45  and  _46
REMARK   22  A    between atoms: _49  and  _51
REMARK   23  A    between atoms: _51  and  _52
REMARK   24  A    between atoms: _51  and  _54
REMARK   25  A    between atoms: _54  and  _55
REMARK   26  A    between atoms: _55  and  _56
REMARK   27  A    between atoms: _56  and  _57
REMARK   28  A    between atoms: _57  and  _58
REMARK   29  A    between atoms: _63  and  _64
REMARK   30  A    between atoms: _69  and  _71
REMARK   31  A    between atoms: _71  and  _72
REMARK   32  A    between atoms: _71  and  _74
REMARK   33  A    between atoms: _77  and  _79
REMARK   34  A    between atoms: _79  and  _80
REMARK   35  A    between atoms: _79  and  _82
REMARK   36  A    between atoms: _82  and  _83
REMARK   37  A    between atoms: _88  and  _89
REMARK   38  A    between atoms: _91  and  _93
REMARK   39  A    between atoms: _93  and  _94
REMARK   40  A    between atoms: _93  and  _96
REMARK   41  A    between atoms: _96  and  _97
REMARK   42  A    between atoms: _100  and  _102
REMARK   43  A    between atoms: _102  and  _103
REMARK   44  A    between atoms: _102  and  _105
REMARK   45  A    between atoms: _105  and  _106
REMARK   46  A    between atoms: _108  and  _110
REMARK   47  A    between atoms: _110  and  _111
REMARK   48  A    between atoms: _110  and  _113
REMARK   49  A    between atoms: _113  and  _114
REMARK   50  A    between atoms: _117  and  _119
REMARK   51  A    between atoms: _119  and  _120
REMARK   52  A    between atoms: _119  and  _122
REMARK   53  A    between atoms: _122  and  _123
REMARK   54  A    between atoms: _123  and  _124
REMARK   55  A    between atoms: _124  and  _125
REMARK   56  A    between atoms: _134  and  _136
REMARK   57  A    between atoms: _136  and  _137
REMARK   58  A    between atoms: _136  and  _139
REMARK   59  A    between atoms: _139  and  _140
REMARK   60  A    between atoms: _140  and  _141
REMARK   61  A    between atoms: _141  and  _142
REMARK   62  A    between atoms: _151  and  _153
REMARK   63  A    between atoms: _153  and  _154
REMARK   64  A    between atoms: _157  and  _159
REMARK   65  A    between atoms: _159  and  _160
REMARK   66  A    between atoms: _163  and  _165
REMARK   67  A    between atoms: _165  and  _166
REMARK   68  A    between atoms: _165  and  _168
REMARK   69  A    between atoms: _168  and  _169
REMARK   70  A    between atoms: _172  and  _174
REMARK   71  A    between atoms: _174  and  _175
REMARK   72  A    between atoms: _174  and  _177
REMARK   73  A    between atoms: _177  and  _178
REMARK   74  A    between atoms: _183  and  _185
REMARK   75  A    between atoms: _185  and  _186
REMARK   76  A    between atoms: _185  and  _188
REMARK   77  A    between atoms: _189  and  _190
REMARK   78  A    between atoms: _195  and  _197
REMARK   79  A    between atoms: _197  and  _198
REMARK   80  A    between atoms: _197  and  _200
REMARK   81  A    between atoms: _203  and  _205
REMARK   82  A    between atoms: _205  and  _206
REMARK   83  A    between atoms: _205  and  _208
REMARK   84  A    between atoms: _208  and  _209
REMARK   85  A    between atoms: _215  and  _217
REMARK   86  A    between atoms: _217  and  _218
REMARK   87  A    between atoms: _217  and  _220
REMARK   88  A    between atoms: _220  and  _221
REMARK   89  A    between atoms: _221  and  _222
REMARK   90  A    between atoms: _224  and  _226
REMARK   91  A    between atoms: _226  and  _227
REMARK   92  A    between atoms: _229  and  _231
REMARK   93  A    between atoms: _231  and  _232
REMARK   94  A    between atoms: _231  and  _234
REMARK   95  A    between atoms: _234  and  _235
REMARK   96  A    between atoms: _235  and  _236
REMARK   97  A    between atoms: _239  and  _241
REMARK   98  A    between atoms: _241  and  _242
REMARK   99  A    between atoms: _244  and  _246
REMARK  100  A    between atoms: _246  and  _247
REMARK  101  A    between atoms: _246  and  _249
REMARK  102  A    between atoms: _252  and  _254
REMARK  103  A    between atoms: _254  and  _255
REMARK  104  A    between atoms: _258  and  _260
REMARK  105  A    between atoms: _260  and  _261
REMARK  106  A    between atoms: _260  and  _263
REMARK  107  A    between atoms: _263  and  _264
REMARK  108  A    between atoms: _270  and  _272
REMARK  109  A    between atoms: _272  and  _273
REMARK  110  A    between atoms: _272  and  _275
REMARK  111  A    between atoms: _275  and  _276
REMARK  112  A    between atoms: _278  and  _280
REMARK  113  A    between atoms: _280  and  _281
REMARK  114  A    between atoms: _280  and  _283
REMARK  115  A    between atoms: _283  and  _284
REMARK  116  A    between atoms: _287  and  _289
REMARK  117  A    between atoms: _289  and  _290
REMARK  118  A    between atoms: _289  and  _292
REMARK  119  A    between atoms: _292  and  _293
REMARK  120  A    between atoms: _296  and  _298
REMARK  121  A    between atoms: _298  and  _299
REMARK  122  A    between atoms: _298  and  _301
REMARK  123  A    between atoms: _301  and  _302
REMARK  124  A    between atoms: _302  and  _303
REMARK  125  A    between atoms: _308  and  _310
REMARK  126  A    between atoms: _310  and  _311
REMARK  127  A    between atoms: _310  and  _313
REMARK  128  A    between atoms: _313  and  _314
REMARK  129  A    between atoms: _317  and  _319
REMARK  130  A    between atoms: _319  and  _320
REMARK  131  A    between atoms: _319  and  _322
REMARK  132  A    between atoms: _325  and  _327
REMARK  133  A    between atoms: _327  and  _328
REMARK  134  A    between atoms: _327  and  _330
REMARK  135  A    between atoms: _330  and  _331
REMARK                            x       y       z     vdW  Elec       q    Type
REMARK                         _______ _______ _______ _____ _____    ______ ____
ROOT
ATOM      1  CA  GLY A   2      28.168  14.843  10.054  0.00  0.00    +0.176 C 
ENDROOT
BRANCH   1   3
ATOM      2  C   MET A   1      29.722  15.774   8.569  0.00  0.00    +0.238 C 
ATOM      3  N   GLY A   2      29.481  14.815   9.456  0.00  0.00    -0.296 N 
ATOM      4  H   GLY A   2      30.189  14.094   9.702  0.00  0.00    +0.150 HD
ATOM      5  O   MET A   1      28.888  16.645   8.316  0.00  0.00    -0.274 OA
BRANCH   2   6
ATOM      6  CA  MET A   1      31.046  15.777   7.842  0.00  0.00    +0.146 C 
BRANCH   6   7
ATOM      7  N   MET A   1      32.038  14.801   8.275  0.00  0.00    -0.238 NA
ATOM      8  H   MET A   1      31.867  13.784   8.138  0.00  0.00    +0.142 HD
ENDBRANCH   6   7
BRANCH   6   9
ATOM      9  CB  MET A   1      31.098  15.860   6.279  0.00  0.00    +0.038 C 
BRANCH   9  10
ATOM     10  CG  MET A   1      30.268  14.933   5.400  0.00  0.00    +0.060 C 
BRANCH  10  11
ATOM     11  SD  MET A   1      30.863  15.099   3.684  0.00  0.00    -0.139 S 
ATOM     12  CE  MET A   1      29.941  13.742   2.925  0.00  0.00    +0.069 C 
ENDBRANCH  10  11
ENDBRANCH   9  10
ENDBRANCH   6   9
ENDBRANCH   2   6
ENDBRANCH   1   3
BRANCH   1  13
ATOM     13  C   GLY A   2      27.161  14.134   9.154  0.00  0.00    +0.243 C 
ATOM     14  N   GLU A   3      26.198  13.557   9.857  0.00  0.00    -0.298 N 
ATOM     15  H   GLU A   3      26.207  13.757  10.877  0.00  0.00    +0.150 HD
ATOM     16  O   GLY A   2      27.274  14.077   7.923  0.00  0.00    -0.273 OA
BRANCH  14  17
ATOM     17  CA  GLU A   3      25.123  12.677   9.398  0.00  0.00    +0.137 C 
BRANCH  17  18
ATOM     18  C   GLU A   3      24.275  13.441   8.429  0.00  0.00    +0.227 C 
ATOM     19  O   GLU A   3      23.672  12.944   7.479  0.00  0.00    -0.286 OA
ENDBRANCH  17  18
BRANCH  17  20
ATOM     20  CB  GLU A   3      24.563  11.871  10.613  0.00  0.00    +0.039 C 
BRANCH  20  21
ATOM     21  CG  GLU A   3      23.050  11.968  10.822  0.00  0.00    +0.116 C 
BRANCH  21  22
ATOM     22  CD  GLU A   3      22.692  11.620  12.226  0.00  0.00    +0.365 C 
ATOM     23  OE2 GLU A   3      23.157  12.227  13.176  0.00  0.00    -0.246 OA
ATOM     24  OE1 GLU A   3      21.867  10.599  12.313  0.00  0.00    -0.246 OA
ENDBRANCH  21  22
ENDBRANCH  20  21
ENDBRANCH  17  20
ENDBRANCH  14  17
ENDBRANCH   1  13
TORSDOF 12
REMARK  Name = ../refined-set-2016/1li6/1li6_pocket.pdb
REMARK  135 active torsions:
REMARK  status: ('A' for Active; 'I' for Inactive)
REMARK    1  A    between atoms: _1  and  _3
REMARK    2  A    between atoms: _3  and  _4
REMARK    3  A    between atoms: _7  and  _9
REMARK    4  A    between atoms: _9  and  _10
REMARK    5  A    between atoms: _9  and  _12
REMARK    6  A    between atoms: _12  and  _13
REMARK    7  A    between atoms: _16  and  _18
REMARK    8  A    between atoms: _18  and  _19
REMARK    9  A    between atoms: _18  and  _21
REMARK   10  A    between atoms: _21  and  _22
REMARK   11  A    between atoms: _27  and  _29
REMARK   12  A    between atoms: _29  and  _30
REMARK   13  A    between atoms: _29  and  _32
REMARK   14  A    between atoms: _32  and  _33
REMARK   15  A    between atoms: _33  and  _34
REMARK   16  A    between atoms: _34  and  _35
REMARK   17  A    between atoms: _35  and  _36
REMARK   18  A    between atoms: _40  and  _42
REMARK   19  A    between atoms: _42  and  _43
REMARK   20  A    between atoms: _42  and  _45
REMARK   21  A    between atoms: _45  and  _46
REMARK   22  A    between atoms: _49  and  _51
REMARK   23  A    between atoms: _51  and  _52
REMARK   24  A    between atoms: _51  and  _54
REMARK   25  A    between atoms: _54  and  _55
REMARK   26  A    between atoms: _55  and  _56
REMARK   27  A    between atoms: _56  and  _57
REMARK   28  A    between atoms: _57  and  _58
REMARK   29  A    between atoms: _63  and  _64
REMARK   30  A    between atoms: _69  and  _71
REMARK   31  A    between atoms: _71  and  _72
REMARK   32  A    between atoms: _71  and  _74
REMARK   33  A    between atoms: _77  and  _79
REMARK   34  A    between atoms: _79  and  _80
REMARK   35  A    between atoms: _79  and  _82
REMARK   36  A    between atoms: _82  and  _83
REMARK   37  A    between atoms: _88  and  _89
REMARK   38  A    between atoms: _91  and  _93
REMARK   39  A    between atoms: _93  and  _94
REMARK   40  A    between atoms: _93  and  _96
REMARK   41  A    between atoms: _96  and  _97
REMARK   42  A    between atoms: _100  and  _102
REMARK   43  A    between atoms: _102  and  _103
REMARK   44  A    between atoms: _102  and  _105
REMARK   45  A    between atoms: _105  and  _106
REMARK   46  A    between atoms: _108  and  _110
REMARK   47  A    between atoms: _110  and  _111
REMARK   48  A    between atoms: _110  and  _113
REMARK   49  A    between atoms: _113  and  _114
REMARK   50  A    between atoms: _117  and  _119
REMARK   51  A    between atoms: _119  and  _120
REMARK   52  A    between atoms: _119  and  _122
REMARK   53  A    between atoms: _122  and  _123
REMARK   54  A    between atoms: _123  and  _124
REMARK   55  A    between atoms: _124  and  _125
REMARK   56  A    between atoms: _134  and  _136
REMARK   57  A    between atoms: _136  and  _137
REMARK   58  A    between atoms: _136  and  _139
REMARK   59  A    between atoms: _139  and  _140
REMARK   60  A    between atoms: _140  and  _141
REMARK   61  A    between atoms: _141  and  _142
REMARK   62  A    between atoms: _151  and  _153
REMARK   63  A    between atoms: _153  and  _154
REMARK   64  A    between atoms: _157  and  _159
REMARK   65  A    between atoms: _159  and  _160
REMARK   66  A    between atoms: _163  and  _165
REMARK   67  A    between atoms: _165  and  _166
REMARK   68  A    between atoms: _165  and  _168
REMARK   69  A    between atoms: _168  and  _169
REMARK   70  A    between atoms: _172  and  _174
REMARK   71  A    between atoms: _174  and  _175
REMARK   72  A    between atoms: _174  and  _177
REMARK   73  A    between atoms: _177  and  _178
REMARK   74  A    between atoms: _183  and  _185
REMARK   75  A    between atoms: _185  and  _186
REMARK   76  A    between atoms: _185  and  _188
REMARK   77  A    between atoms: _189  and  _190
REMARK   78  A    between atoms: _195  and  _197
REMARK   79  A    between atoms: _197  and  _198
REMARK   80  A    between atoms: _197  and  _200
REMARK   81  A    between atoms: _203  and  _205
REMARK   82  A    between atoms: _205  and  _206
REMARK   83  A    between atoms: _205  and  _208
REMARK   84  A    between atoms: _208  and  _209
REMARK   85  A    between atoms: _215  and  _217
REMARK   86  A    between atoms: _217  and  _218
REMARK   87  A    between atoms: _217  and  _220
REMARK   88  A    between atoms: _220  and  _221
REMARK   89  A    between atoms: _221  and  _222
REMARK   90  A    between atoms: _224  and  _226
REMARK   91  A    between atoms: _226  and  _227
REMARK   92  A    between atoms: _229  and  _231
REMARK   93  A    between atoms: _231  and  _232
REMARK   94  A    between atoms: _231  and  _234
REMARK   95  A    between atoms: _234  and  _235
REMARK   96  A    between atoms: _235  and  _236
REMARK   97  A    between atoms: _239  and  _241
REMARK   98  A    between atoms: _241  and  _242
REMARK   99  A    between atoms: _244  and  _246
REMARK  100  A    between atoms: _246  and  _247
REMARK  101  A    between atoms: _246  and  _249
REMARK  102  A    between atoms: _252  and  _254
REMARK  103  A    between atoms: _254  and  _255
REMARK  104  A    between atoms: _258  and  _260
REMARK  105  A    between atoms: _260  and  _261
REMARK  106  A    between atoms: _260  and  _263
REMARK  107  A    between atoms: _263  and  _264
REMARK  108  A    between atoms: _270  and  _272
REMARK  109  A    between atoms: _272  and  _273
REMARK  110  A    between atoms: _272  and  _275
REMARK  111  A    between atoms: _275  and  _276
REMARK  112  A    between atoms: _278  and  _280
REMARK  113  A    between atoms: _280  and  _281
REMARK  114  A    between atoms: _280  and  _283
REMARK  115  A    between atoms: _283  and  _284
REMARK  116  A    between atoms: _287  and  _289
REMARK  117  A    between atoms: _289  and  _290
REMARK  118  A    between atoms: _289  and  _292
REMARK  119  A    between atoms: _292  and  _293
REMARK  120  A    between atoms: _296  and  _298
REMARK  121  A    between atoms: _298  and  _299
REMARK  122  A    between atoms: _298  and  _301
REMARK  123  A    between atoms: _301  and  _302
REMARK  124  A    between atoms: _302  and  _303
REMARK  125  A    between atoms: _308  and  _310
REMARK  126  A    between atoms: _310  and  _311
REMARK  127  A    between atoms: _310  and  _313
REMARK  128  A    between atoms: _313  and  _314
REMARK  129  A    between atoms: _317  and  _319
REMARK  130  A    between atoms: _319  and  _320
REMARK  131  A    between atoms: _319  and  _322
REMARK  132  A    between atoms: _325  and  _327
REMARK  133  A    between atoms: _327  and  _328
REMARK  134  A    between atoms: _327  and  _330
REMARK  135  A    between atoms: _330  and  _331
REMARK                            x       y       z     vdW  Elec       q    Type
REMARK                         _______ _______ _______ _____ _____    ______ ____
ROOT
ATOM      1  CA  VAL A   2      26.191  12.832   4.275  0.00  0.00    +0.148 C 
ENDROOT
BRANCH   1   3
ATOM      2  C   GLY A   1      26.015  15.228   4.410  0.00  0.00    +0.240 C 
ATOM      3  N   VAL A   2      26.305  14.078   4.978  0.00  0.00    -0.297 N 
ATOM      4  H   VAL A   2      26.627  14.071   5.967  0.00  0.00    +0.150 HD
ATOM      5  O   GLY A   1      25.510  15.276   3.311  0.00  0.00    -0.274 OA
BRANCH   2   6
ATOM      6  CA  GLY A   1      26.225  16.481   5.258  0.00  0.00    +0.169 C 
BRANCH   6   7
ATOM      7  N   GLY A   1      25.520  16.309   6.517  0.00  0.00    -0.236 NA
ATOM      8  H   GLY A   1      26.044  16.466   7.401  0.00  0.00    +0.142 HD
ENDBRANCH   6   7
ENDBRANCH   2   6
ENDBRANCH   1   3
BRANCH   1   9
ATOM      9  C   VAL A   2      24.834  12.511   3.746  0.00  0.00    +0.241 C 
ATOM     10  N   ALA A   3      23.794  12.713   4.568  0.00  0.00    -0.298 N 
ATOM     11  H   ALA A   3      24.002  13.037   5.534  0.00  0.00    +0.150 HD
ATOM     12  O   VAL A   2      24.761  12.097   2.592  0.00  0.00    -0.273 OA
BRANCH  10  13
ATOM     13  CA  ALA A   3      22.369  12.510   4.207  0.00  0.00    +0.137 C 
ATOM     14  CB  ALA A   3      21.504  12.602   5.484  0.00  0.00    +0.030 C 
BRANCH  13  15
ATOM     15  C   ALA A   3      21.959  13.222   2.859  0.00  0.00    +0.227 C 
ATOM     16  O   ALA A   3      21.063  12.761   2.101  0.00  0.00    -0.286 OA
ENDBRANCH  13  15
ENDBRANCH  10  13
ENDBRANCH   1   9
BRANCH   1  17
ATOM     17  CB  VAL A   2      26.775  11.728   5.100  0.00  0.00    +0.027 C 
ATOM     18  CG2 VAL A   2      28.157  12.264   5.491  0.00  0.00    +0.002 C 
ATOM     19  CG1 VAL A   2      26.661  10.479   4.234  0.00  0.00    +0.002 C 
ENDBRANCH   1  17
TORSDOF 7
REMARK  Name = ../refined-set-2016/1li6/1li6_pocket.pdb
REMARK  135 active torsions:
REMARK  status: ('A' for Active; 'I' for Inactive)
REMARK    1  A    between atoms: _1  and  _3
REMARK    2  A    between atoms: _3  and  _4
REMARK    3  A    between atoms: _7  and  _9
REMARK    4  A    between atoms: _9  and  _10
REMARK    5  A    between atoms: _9  and  _12
REMARK    6  A    between atoms: _12  and  _13
REMARK    7  A    between atoms: _16  and  _18
REMARK    8  A    between atoms: _18  and  _19
REMARK    9  A    between atoms: _18  and  _21
REMARK   10  A    between atoms: _21  and  _22
REMARK   11  A    between atoms: _27  and  _29
REMARK   12  A    between atoms: _29  and  _30
REMARK   13  A    between atoms: _29  and  _32
REMARK   14  A    between atoms: _32  and  _33
REMARK   15  A    between atoms: _33  and  _34
REMARK   16  A    between atoms: _34  and  _35
REMARK   17  A    between atoms: _35  and  _36
REMARK   18  A    between atoms: _40  and  _42
REMARK   19  A    between atoms: _42  and  _43
REMARK   20  A    between atoms: _42  and  _45
REMARK   21  A    between atoms: _45  and  _46
REMARK   22  A    between atoms: _49  and  _51
REMARK   23  A    between atoms: _51  and  _52
REMARK   24  A    between atoms: _51  and  _54
REMARK   25  A    between atoms: _54  and  _55
REMARK   26  A    between atoms: _55  and  _56
REMARK   27  A    between atoms: _56  and  _57
REMARK   28  A    between atoms: _57  and  _58
REMARK   29  A    between atoms: _63  and  _64
REMARK   30  A    between atoms: _69  and  _71
REMARK   31  A    between atoms: _71  and  _72
REMARK   32  A    between atoms: _71  and  _74
REMARK   33  A    between atoms: _77  and  _79
REMARK   34  A    between atoms: _79  and  _80
REMARK   35  A    between atoms: _79  and  _82
REMARK   36  A    between atoms: _82  and  _83
REMARK   37  A    between atoms: _88  and  _89
REMARK   38  A    between atoms: _91  and  _93
REMARK   39  A    between atoms: _93  and  _94
REMARK   40  A    between atoms: _93  and  _96
REMARK   41  A    between atoms: _96  and  _97
REMARK   42  A    between atoms: _100  and  _102
REMARK   43  A    between atoms: _102  and  _103
REMARK   44  A    between atoms: _102  and  _105
REMARK   45  A    between atoms: _105  and  _106
REMARK   46  A    between atoms: _108  and  _110
REMARK   47  A    between atoms: _110  and  _111
REMARK   48  A    between atoms: _110  and  _113
REMARK   49  A    between atoms: _113  and  _114
REMARK   50  A    between atoms: _117  and  _119
REMARK   51  A    between atoms: _119  and  _120
REMARK   52  A    between atoms: _119  and  _122
REMARK   53  A    between atoms: _122  and  _123
REMARK   54  A    between atoms: _123  and  _124
REMARK   55  A    between atoms: _124  and  _125
REMARK   56  A    between atoms: _134  and  _136
REMARK   57  A    between atoms: _136  and  _137
REMARK   58  A    between atoms: _136  and  _139
REMARK   59  A    between atoms: _139  and  _140
REMARK   60  A    between atoms: _140  and  _141
REMARK   61  A    between atoms: _141  and  _142
REMARK   62  A    between atoms: _151  and  _153
REMARK   63  A    between atoms: _153  and  _154
REMARK   64  A    between atoms: _157  and  _159
REMARK   65  A    between atoms: _159  and  _160
REMARK   66  A    between atoms: _163  and  _165
REMARK   67  A    between atoms: _165  and  _166
REMARK   68  A    between atoms: _165  and  _168
REMARK   69  A    between atoms: _168  and  _169
REMARK   70  A    between atoms: _172  and  _174
REMARK   71  A    between atoms: _174  and  _175
REMARK   72  A    between atoms: _174  and  _177
REMARK   73  A    between atoms: _177  and  _178
REMARK   74  A    between atoms: _183  and  _185
REMARK   75  A    between atoms: _185  and  _186
REMARK   76  A    between atoms: _185  and  _188
REMARK   77  A    between atoms: _189  and  _190
REMARK   78  A    between atoms: _195  and  _197
REMARK   79  A    between atoms: _197  and  _198
REMARK   80  A    between atoms: _197  and  _200
REMARK   81  A    between atoms: _203  and  _205
REMARK   82  A    between atoms: _205  and  _206
REMARK   83  A    between atoms: _205  and  _208
REMARK   84  A    between atoms: _208  and  _209
REMARK   85  A    between atoms: _215  and  _217
REMARK   86  A    between atoms: _217  and  _218
REMARK   87  A    between atoms: _217  and  _220
REMARK   88  A    between atoms: _220  and  _221
REMARK   89  A    between atoms: _221  and  _222
REMARK   90  A    between atoms: _224  and  _226
REMARK   91  A    between atoms: _226  and  _227
REMARK   92  A    between atoms: _229  and  _231
REMARK   93  A    between atoms: _231  and  _232
REMARK   94  A    between atoms: _231  and  _234
REMARK   95  A    between atoms: _234  and  _235
REMARK   96  A    between atoms: _235  and  _236
REMARK   97  A    between atoms: _239  and  _241
REMARK   98  A    between atoms: _241  and  _242
REMARK   99  A    between atoms: _244  and  _246
REMARK  100  A    between atoms: _246  and  _247
REMARK  101  A    between atoms: _246  and  _249
REMARK  102  A    between atoms: _252  and  _254
REMARK  103  A    between atoms: _254  and  _255
REMARK  104  A    between atoms: _258  and  _260
REMARK  105  A    between atoms: _260  and  _261
REMARK  106  A    between atoms: _260  and  _263
REMARK  107  A    between atoms: _263  and  _264
REMARK  108  A    between atoms: _270  and  _272
REMARK  109  A    between atoms: _272  and  _273
REMARK  110  A    between atoms: _272  and  _275
REMARK  111  A    between atoms: _275  and  _276
REMARK  112  A    between atoms: _278  and  _280
REMARK  113  A    between atoms: _280  and  _281
REMARK  114  A    between atoms: _280  and  _283
REMARK  115  A    between atoms: _283  and  _284
REMARK  116  A    between atoms: _287  and  _289
REMARK  117  A    between atoms: _289  and  _290
REMARK  118  A    between atoms: _289  and  _292
REMARK  119  A    between atoms: _292  and  _293
REMARK  120  A    between atoms: _296  and  _298
REMARK  121  A    between atoms: _298  and  _299
REMARK  122  A    between atoms: _298  and  _301
REMARK  123  A    between atoms: _301  and  _302
REMARK  124  A    between atoms: _302  and  _303
REMARK  125  A    between atoms: _308  and  _310
REMARK  126  A    between atoms: _310  and  _311
REMARK  127  A    between atoms: _310  and  _313
REMARK  128  A    between atoms: _313  and  _314
REMARK  129  A    between atoms: _317  and  _319
REMARK  130  A    between atoms: _319  and  _320
REMARK  131  A    between atoms: _319  and  _322
REMARK  132  A    between atoms: _325  and  _327
REMARK  133  A    between atoms: _327  and  _328
REMARK  134  A    between atoms: _327  and  _330
REMARK  135  A    between atoms: _330  and  _331
REMARK                            x       y       z     vdW  Elec       q    Type
REMARK                         _______ _______ _______ _____ _____    ______ ____
ROOT
ATOM      1  CB  PHE A   1      25.871  12.209  -0.404  0.00  0.00    +0.051 C 
ENDROOT
BRANCH   1   2
ATOM      2  CG  PHE A   1      27.063  13.152  -0.391  0.00  0.00    -0.020 A 
ATOM      3  CD2 PHE A   1      27.076  14.274   0.438  0.00  0.00    -0.004 A 
ATOM      4  CE2 PHE A   1      28.200  15.100   0.483  0.00  0.00    -0.000 A 
ATOM      5  CZ  PHE A   1      29.322  14.835  -0.303  0.00  0.00    -0.000 A 
ATOM      6  CE1 PHE A   1      29.325  13.735  -1.160  0.00  0.00    -0.000 A 
ATOM      7  CD1 PHE A   1      28.195  12.918  -1.173  0.00  0.00    -0.004 A 
ENDBRANCH   1   2
BRANCH   1   8
ATOM      8  CA  PHE A   1      24.595  12.775  -0.979  0.00  0.00    +0.137 C 
BRANCH   8   9
ATOM      9  N   PHE A   1      23.908  13.505   0.067  0.00  0.00    -0.239 NA
ATOM     10  H   PHE A   1      24.031  13.149   1.036  0.00  0.00    +0.142 HD
ENDBRANCH   8   9
BRANCH   8  11
ATOM     11  C   PHE A   1      23.691  11.701  -1.551  0.00  0.00    +0.224 C 
ATOM     12  O   PHE A   1      24.072  10.597  -1.921  0.00  0.00    -0.287 OA
ENDBRANCH   8  11
ENDBRANCH   1   8
TORSDOF 4
REMARK  Name = ../refined-set-2016/1li6/1li6_pocket.pdb
REMARK  135 active torsions:
REMARK  status: ('A' for Active; 'I' for Inactive)
REMARK    1  A    between atoms: _1  and  _3
REMARK    2  A    between atoms: _3  and  _4
REMARK    3  A    between atoms: _7  and  _9
REMARK    4  A    between atoms: _9  and  _10
REMARK    5  A    between atoms: _9  and  _12
REMARK    6  A    between atoms: _12  and  _13
REMARK    7  A    between atoms: _16  and  _18
REMARK    8  A    between atoms: _18  and  _19
REMARK    9  A    between atoms: _18  and  _21
REMARK   10  A    between atoms: _21  and  _22
REMARK   11  A    between atoms: _27  and  _29
REMARK   12  A    between atoms: _29  and  _30
REMARK   13  A    between atoms: _29  and  _32
REMARK   14  A    between atoms: _32  and  _33
REMARK   15  A    between atoms: _33  and  _34
REMARK   16  A    between atoms: _34  and  _35
REMARK   17  A    between atoms: _35  and  _36
REMARK   18  A    between atoms: _40  and  _42
REMARK   19  A    between atoms: _42  and  _43
REMARK   20  A    between atoms: _42  and  _45
REMARK   21  A    between atoms: _45  and  _46
REMARK   22  A    between atoms: _49  and  _51
REMARK   23  A    between atoms: _51  and  _52
REMARK   24  A    between atoms: _51  and  _54
REMARK   25  A    between atoms: _54  and  _55
REMARK   26  A    between atoms: _55  and  _56
REMARK   27  A    between atoms: _56  and  _57
REMARK   28  A    between atoms: _57  and  _58
REMARK   29  A    between atoms: _63  and  _64
REMARK   30  A    between atoms: _69  and  _71
REMARK   31  A    between atoms: _71  and  _72
REMARK   32  A    between atoms: _71  and  _74
REMARK   33  A    between atoms: _77  and  _79
REMARK   34  A    between atoms: _79  and  _80
REMARK   35  A    between atoms: _79  and  _82
REMARK   36  A    between atoms: _82  and  _83
REMARK   37  A    between atoms: _88  and  _89
REMARK   38  A    between atoms: _91  and  _93
REMARK   39  A    between atoms: _93  and  _94
REMARK   40  A    between atoms: _93  and  _96
REMARK   41  A    between atoms: _96  and  _97
REMARK   42  A    between atoms: _100  and  _102
REMARK   43  A    between atoms: _102  and  _103
REMARK   44  A    between atoms: _102  and  _105
REMARK   45  A    between atoms: _105  and  _106
REMARK   46  A    between atoms: _108  and  _110
REMARK   47  A    between atoms: _110  and  _111
REMARK   48  A    between atoms: _110  and  _113
REMARK   49  A    between atoms: _113  and  _114
REMARK   50  A    between atoms: _117  and  _119
REMARK   51  A    between atoms: _119  and  _120
REMARK   52  A    between atoms: _119  and  _122
REMARK   53  A    between atoms: _122  and  _123
REMARK   54  A    between atoms: _123  and  _124
REMARK   55  A    between atoms: _124  and  _125
REMARK   56  A    between atoms: _134  and  _136
REMARK   57  A    between atoms: _136  and  _137
REMARK   58  A    between atoms: _136  and  _139
REMARK   59  A    between atoms: _139  and  _140
REMARK   60  A    between atoms: _140  and  _141
REMARK   61  A    between atoms: _141  and  _142
REMARK   62  A    between atoms: _151  and  _153
REMARK   63  A    between atoms: _153  and  _154
REMARK   64  A    between atoms: _157  and  _159
REMARK   65  A    between atoms: _159  and  _160
REMARK   66  A    between atoms: _163  and  _165
REMARK   67  A    between atoms: _165  and  _166
REMARK   68  A    between atoms: _165  and  _168
REMARK   69  A    between atoms: _168  and  _169
REMARK   70  A    between atoms: _172  and  _174
REMARK   71  A    between atoms: _174  and  _175
REMARK   72  A    between atoms: _174  and  _177
REMARK   73  A    between atoms: _177  and  _178
REMARK   74  A    between atoms: _183  and  _185
REMARK   75  A    between atoms: _185  and  _186
REMARK   76  A    between atoms: _185  and  _188
REMARK   77  A    between atoms: _189  and  _190
REMARK   78  A    between atoms: _195  and  _197
REMARK   79  A    between atoms: _197  and  _198
REMARK   80  A    between atoms: _197  and  _200
REMARK   81  A    between atoms: _203  and  _205
REMARK   82  A    between atoms: _205  and  _206
REMARK   83  A    between atoms: _205  and  _208
REMARK   84  A    between atoms: _208  and  _209
REMARK   85  A    between atoms: _215  and  _217
REMARK   86  A    between atoms: _217  and  _218
REMARK   87  A    between atoms: _217  and  _220
REMARK   88  A    between atoms: _220  and  _221
REMARK   89  A    between atoms: _221  and  _222
REMARK   90  A    between atoms: _224  and  _226
REMARK   91  A    between atoms: _226  and  _227
REMARK   92  A    between atoms: _229  and  _231
REMARK   93  A    between atoms: _231  and  _232
REMARK   94  A    between atoms: _231  and  _234
REMARK   95  A    between atoms: _234  and  _235
REMARK   96  A    between atoms: _235  and  _236
REMARK   97  A    between atoms: _239  and  _241
REMARK   98  A    between atoms: _241  and  _242
REMARK   99  A    between atoms: _244  and  _246
REMARK  100  A    between atoms: _246  and  _247
REMARK  101  A    between atoms: _246  and  _249
REMARK  102  A    between atoms: _252  and  _254
REMARK  103  A    between atoms: _254  and  _255
REMARK  104  A    between atoms: _258  and  _260
REMARK  105  A    between atoms: _260  and  _261
REMARK  106  A    between atoms: _260  and  _263
REMARK  107  A    between atoms: _263  and  _264
REMARK  108  A    between atoms: _270  and  _272
REMARK  109  A    between atoms: _272  and  _273
REMARK  110  A    between atoms: _272  and  _275
REMARK  111  A    between atoms: _275  and  _276
REMARK  112  A    between atoms: _278  and  _280
REMARK  113  A    between atoms: _280  and  _281
REMARK  114  A    between atoms: _280  and  _283
REMARK  115  A    between atoms: _283  and  _284
REMARK  116  A    between atoms: _287  and  _289
REMARK  117  A    between atoms: _289  and  _290
REMARK  118  A    between atoms: _289  and  _292
REMARK  119  A    between atoms: _292  and  _293
REMARK  120  A    between atoms: _296  and  _298
REMARK  121  A    between atoms: _298  and  _299
REMARK  122  A    between atoms: _298  and  _301
REMARK  123  A    between atoms: _301  and  _302
REMARK  124  A    between atoms: _302  and  _303
REMARK  125  A    between atoms: _308  and  _310
REMARK  126  A    between atoms: _310  and  _311
REMARK  127  A    between atoms: _310  and  _313
REMARK  128  A    between atoms: _313  and  _314
REMARK  129  A    between atoms: _317  and  _319
REMARK  130  A    between atoms: _319  and  _320
REMARK  131  A    between atoms: _319  and  _322
REMARK  132  A    between atoms: _325  and  _327
REMARK  133  A    between atoms: _327  and  _328
REMARK  134  A    between atoms: _327  and  _330
REMARK  135  A    between atoms: _330  and  _331
REMARK                            x       y       z     vdW  Elec       q    Type
REMARK                         _______ _______ _______ _____ _____    ______ ____
ROOT
ATOM      1  C   SER A   1      25.311   7.664  -3.541  0.00  0.00    +0.241 C 
ATOM      2  N   LEU A   2      24.432   7.994  -2.616  0.00  0.00    -0.298 N 
ATOM      3  H   LEU A   2      24.071   8.967  -2.547  0.00  0.00    +0.150 HD
ATOM      4  O   SER A   1      25.708   6.541  -3.664  0.00  0.00    -0.274 OA
ENDROOT
BRANCH   1   5
ATOM      5  CA  SER A   1      25.763   8.795  -4.424  0.00  0.00    +0.174 C 
BRANCH   5   6
ATOM      6  N   SER A   1      24.681   9.746  -4.559  0.00  0.00    -0.236 NA
ATOM      7  H   SER A   1      24.727  10.703  -4.155  0.00  0.00    +0.142 HD
ENDBRANCH   5   6
BRANCH   5   8
ATOM      8  CB  SER A   1      26.871   9.371  -3.594  0.00  0.00    +0.163 C 
BRANCH   8   9
ATOM      9  OG  SER A   1      27.328  10.573  -4.162  0.00  0.00    -0.380 OA
ATOM     10  H   SER A   1      27.665  10.398  -5.076  0.00  0.00    +0.211 HD
ENDBRANCH   8   9
ENDBRANCH   5   8
ENDBRANCH   1   5
BRANCH   2  11
ATOM     11  CA  LEU A   2      23.987   6.980  -1.709  0.00  0.00    +0.137 C 
BRANCH  11  12
ATOM     12  C   LEU A   2      23.252   5.923  -2.441  0.00  0.00    +0.227 C 
ATOM     13  O   LEU A   2      23.402   4.707  -2.200  0.00  0.00    -0.286 OA
ENDBRANCH  11  12
BRANCH  11  14
ATOM     14  CB  LEU A   2      23.013   7.520  -0.652  0.00  0.00    +0.028 C 
BRANCH  14  15
ATOM     15  CG  LEU A   2      23.745   8.334   0.416  0.00  0.00    +0.002 C 
ATOM     16  CD2 LEU A   2      24.595   7.490   1.398  0.00  0.00    +0.000 C 
ATOM     17  CD1 LEU A   2      22.665   9.088   1.162  0.00  0.00    +0.000 C 
ENDBRANCH  14  15
ENDBRANCH  11  14
ENDBRANCH   2  11
TORSDOF 8
REMARK  Name = ../refined-set-2016/1li6/1li6_pocket.pdb
REMARK  135 active torsions:
REMARK  status: ('A' for Active; 'I' for Inactive)
REMARK    1  A    between atoms: _1  and  _3
REMARK    2  A    between atoms: _3  and  _4
REMARK    3  A    between atoms: _7  and  _9
REMARK    4  A    between atoms: _9  and  _10
REMARK    5  A    between atoms: _9  and  _12
REMARK    6  A    between atoms: _12  and  _13
REMARK    7  A    between atoms: _16  and  _18
REMARK    8  A    between atoms: _18  and  _19
REMARK    9  A    between atoms: _18  and  _21
REMARK   10  A    between atoms: _21  and  _22
REMARK   11  A    between atoms: _27  and  _29
REMARK   12  A    between atoms: _29  and  _30
REMARK   13  A    between atoms: _29  and  _32
REMARK   14  A    between atoms: _32  and  _33
REMARK   15  A    between atoms: _33  and  _34
REMARK   16  A    between atoms: _34  and  _35
REMARK   17  A    between atoms: _35  and  _36
REMARK   18  A    between atoms: _40  and  _42
REMARK   19  A    between atoms: _42  and  _43
REMARK   20  A    between atoms: _42  and  _45
REMARK   21  A    between atoms: _45  and  _46
REMARK   22  A    between atoms: _49  and  _51
REMARK   23  A    between atoms: _51  and  _52
REMARK   24  A    between atoms: _51  and  _54
REMARK   25  A    between atoms: _54  and  _55
REMARK   26  A    between atoms: _55  and  _56
REMARK   27  A    between atoms: _56  and  _57
REMARK   28  A    between atoms: _57  and  _58
REMARK   29  A    between atoms: _63  and  _64
REMARK   30  A    between atoms: _69  and  _71
REMARK   31  A    between atoms: _71  and  _72
REMARK   32  A    between atoms: _71  and  _74
REMARK   33  A    between atoms: _77  and  _79
REMARK   34  A    between atoms: _79  and  _80
REMARK   35  A    between atoms: _79  and  _82
REMARK   36  A    between atoms: _82  and  _83
REMARK   37  A    between atoms: _88  and  _89
REMARK   38  A    between atoms: _91  and  _93
REMARK   39  A    between atoms: _93  and  _94
REMARK   40  A    between atoms: _93  and  _96
REMARK   41  A    between atoms: _96  and  _97
REMARK   42  A    between atoms: _100  and  _102
REMARK   43  A    between atoms: _102  and  _103
REMARK   44  A    between atoms: _102  and  _105
REMARK   45  A    between atoms: _105  and  _106
REMARK   46  A    between atoms: _108  and  _110
REMARK   47  A    between atoms: _110  and  _111
REMARK   48  A    between atoms: _110  and  _113
REMARK   49  A    between atoms: _113  and  _114
REMARK   50  A    between atoms: _117  and  _119
REMARK   51  A    between atoms: _119  and  _120
REMARK   52  A    between atoms: _119  and  _122
REMARK   53  A    between atoms: _122  and  _123
REMARK   54  A    between atoms: _123  and  _124
REMARK   55  A    between atoms: _124  and  _125
REMARK   56  A    between atoms: _134  and  _136
REMARK   57  A    between atoms: _136  and  _137
REMARK   58  A    between atoms: _136  and  _139
REMARK   59  A    between atoms: _139  and  _140
REMARK   60  A    between atoms: _140  and  _141
REMARK   61  A    between atoms: _141  and  _142
REMARK   62  A    between atoms: _151  and  _153
REMARK   63  A    between atoms: _153  and  _154
REMARK   64  A    between atoms: _157  and  _159
REMARK   65  A    between atoms: _159  and  _160
REMARK   66  A    between atoms: _163  and  _165
REMARK   67  A    between atoms: _165  and  _166
REMARK   68  A    between atoms: _165  and  _168
REMARK   69  A    between atoms: _168  and  _169
REMARK   70  A    between atoms: _172  and  _174
REMARK   71  A    between atoms: _174  and  _175
REMARK   72  A    between atoms: _174  and  _177
REMARK   73  A    between atoms: _177  and  _178
REMARK   74  A    between atoms: _183  and  _185
REMARK   75  A    between atoms: _185  and  _186
REMARK   76  A    between atoms: _185  and  _188
REMARK   77  A    between atoms: _189  and  _190
REMARK   78  A    between atoms: _195  and  _197
REMARK   79  A    between atoms: _197  and  _198
REMARK   80  A    between atoms: _197  and  _200
REMARK   81  A    between atoms: _203  and  _205
REMARK   82  A    between atoms: _205  and  _206
REMARK   83  A    between atoms: _205  and  _208
REMARK   84  A    between atoms: _208  and  _209
REMARK   85  A    between atoms: _215  and  _217
REMARK   86  A    between atoms: _217  and  _218
REMARK   87  A    between atoms: _217  and  _220
REMARK   88  A    between atoms: _220  and  _221
REMARK   89  A    between atoms: _221  and  _222
REMARK   90  A    between atoms: _224  and  _226
REMARK   91  A    between atoms: _226  and  _227
REMARK   92  A    between atoms: _229  and  _231
REMARK   93  A    between atoms: _231  and  _232
REMARK   94  A    between atoms: _231  and  _234
REMARK   95  A    between atoms: _234  and  _235
REMARK   96  A    between atoms: _235  and  _236
REMARK   97  A    between atoms: _239  and  _241
REMARK   98  A    between atoms: _241  and  _242
REMARK   99  A    between atoms: _244  and  _246
REMARK  100  A    between atoms: _246  and  _247
REMARK  101  A    between atoms: _246  and  _249
REMARK  102  A    between atoms: _252  and  _254
REMARK  103  A    between atoms: _254  and  _255
REMARK  104  A    between atoms: _258  and  _260
REMARK  105  A    between atoms: _260  and  _261
REMARK  106  A    between atoms: _260  and  _263
REMARK  107  A    between atoms: _263  and  _264
REMARK  108  A    between atoms: _270  and  _272
REMARK  109  A    between atoms: _272  and  _273
REMARK  110  A    between atoms: _272  and  _275
REMARK  111  A    between atoms: _275  and  _276
REMARK  112  A    between atoms: _278  and  _280
REMARK  113  A    between atoms: _280  and  _281
REMARK  114  A    between atoms: _280  and  _283
REMARK  115  A    between atoms: _283  and  _284
REMARK  116  A    between atoms: _287  and  _289
REMARK  117  A    between atoms: _289  and  _290
REMARK  118  A    between atoms: _289  and  _292
REMARK  119  A    between atoms: _292  and  _293
REMARK  120  A    between atoms: _296  and  _298
REMARK  121  A    between atoms: _298  and  _299
REMARK  122  A    between atoms: _298  and  _301
REMARK  123  A    between atoms: _301  and  _302
REMARK  124  A    between atoms: _302  and  _303
REMARK  125  A    between atoms: _308  and  _310
REMARK  126  A    between atoms: _310  and  _311
REMARK  127  A    between atoms: _310  and  _313
REMARK  128  A    between atoms: _313  and  _314
REMARK  129  A    between atoms: _317  and  _319
REMARK  130  A    between atoms: _319  and  _320
REMARK  131  A    between atoms: _319  and  _322
REMARK  132  A    between atoms: _325  and  _327
REMARK  133  A    between atoms: _327  and  _328
REMARK  134  A    between atoms: _327  and  _330
REMARK  135  A    between atoms: _330  and  _331
REMARK                            x       y       z     vdW  Elec       q    Type
REMARK                         _______ _______ _______ _____ _____    ______ ____
ROOT
ATOM      1  C   LEU A   1      25.476   1.678  -3.090  0.00  0.00    +0.238 C 
ATOM      2  N   GLN A   2      24.225   2.015  -2.867  0.00  0.00    -0.298 N 
ATOM      3  H   GLN A   2      23.879   2.991  -2.966  0.00  0.00    +0.150 HD
ATOM      4  O   LEU A   1      25.810   0.491  -2.975  0.00  0.00    -0.274 OA
ENDROOT
BRANCH   1   5
ATOM      5  CA  LEU A   1      26.420   2.830  -3.454  0.00  0.00    +0.145 C 
BRANCH   5   6
ATOM      6  N   LEU A   1      25.673   3.764  -4.287  0.00  0.00    -0.238 NA
ATOM      7  H   LEU A   1      25.424   4.716  -3.950  0.00  0.00    +0.142 HD
ENDBRANCH   5   6
BRANCH   5   8
ATOM      8  CB  LEU A   1      26.807   3.570  -2.158  0.00  0.00    +0.026 C 
BRANCH   8   9
ATOM      9  CG  LEU A   1      27.957   4.553  -2.428  0.00  0.00    +0.002 C 
ATOM     10  CD2 LEU A   1      28.116   5.494  -1.233  0.00  0.00    +0.000 C 
ATOM     11  CD1 LEU A   1      29.254   3.761  -2.651  0.00  0.00    +0.000 C 
ENDBRANCH   8   9
ENDBRANCH   5   8
ENDBRANCH   1   5
BRANCH   2  12
ATOM     12  CA  GLN A   2      23.377   0.929  -2.476  0.00  0.00    +0.137 C 
BRANCH  12  13
ATOM     13  C   GLN A   2      23.179  -0.103  -3.605  0.00  0.00    +0.227 C 
ATOM     14  O   GLN A   2      22.995  -1.298  -3.415  0.00  0.00    -0.286 OA
ENDBRANCH  12  13
BRANCH  12  15
ATOM     15  CB  GLN A   2      22.067   1.576  -2.048  0.00  0.00    +0.037 C 
BRANCH  15  16
ATOM     16  CG  GLN A   2      21.121   0.498  -1.524  0.00  0.00    +0.087 C 
BRANCH  16  17
ATOM     17  CD  GLN A   2      19.855   1.148  -1.060  0.00  0.00    +0.219 C 
ATOM     18  NE2 GLN A   2      19.088   0.382  -0.270  0.00  0.00    -0.329 N 
ATOM     19 HE21 GLN A   2      18.164   0.732   0.055  0.00  0.00    +0.145 HD
ATOM     20 HE22 GLN A   2      19.417  -0.562   0.017  0.00  0.00    +0.145 HD
ATOM     21  OE1 GLN A   2      19.573   2.296  -1.473  0.00  0.00    -0.275 OA
ENDBRANCH  16  17
ENDBRANCH  15  16
ENDBRANCH  12  15
ENDBRANCH   2  12
TORSDOF 9
REMARK  Name = ../refined-set-2016/1li6/1li6_pocket.pdb
REMARK  135 active torsions:
REMARK  status: ('A' for Active; 'I' for Inactive)
REMARK    1  A    between atoms: _1  and  _3
REMARK    2  A    between atoms: _3  and  _4
REMARK    3  A    between atoms: _7  and  _9
REMARK    4  A    between atoms: _9  and  _10
REMARK    5  A    between atoms: _9  and  _12
REMARK    6  A    between atoms: _12  and  _13
REMARK    7  A    between atoms: _16  and  _18
REMARK    8  A    between atoms: _18  and  _19
REMARK    9  A    between atoms: _18  and  _21
REMARK   10  A    between atoms: _21  and  _22
REMARK   11  A    between atoms: _27  and  _29
REMARK   12  A    between atoms: _29  and  _30
REMARK   13  A    between atoms: _29  and  _32
REMARK   14  A    between atoms: _32  and  _33
REMARK   15  A    between atoms: _33  and  _34
REMARK   16  A    between atoms: _34  and  _35
REMARK   17  A    between atoms: _35  and  _36
REMARK   18  A    between atoms: _40  and  _42
REMARK   19  A    between atoms: _42  and  _43
REMARK   20  A    between atoms: _42  and  _45
REMARK   21  A    between atoms: _45  and  _46
REMARK   22  A    between atoms: _49  and  _51
REMARK   23  A    between atoms: _51  and  _52
REMARK   24  A    between atoms: _51  and  _54
REMARK   25  A    between atoms: _54  and  _55
REMARK   26  A    between atoms: _55  and  _56
REMARK   27  A    between atoms: _56  and  _57
REMARK   28  A    between atoms: _57  and  _58
REMARK   29  A    between atoms: _63  and  _64
REMARK   30  A    between atoms: _69  and  _71
REMARK   31  A    between atoms: _71  and  _72
REMARK   32  A    between atoms: _71  and  _74
REMARK   33  A    between atoms: _77  and  _79
REMARK   34  A    between atoms: _79  and  _80
REMARK   35  A    between atoms: _79  and  _82
REMARK   36  A    between atoms: _82  and  _83
REMARK   37  A    between atoms: _88  and  _89
REMARK   38  A    between atoms: _91  and  _93
REMARK   39  A    between atoms: _93  and  _94
REMARK   40  A    between atoms: _93  and  _96
REMARK   41  A    between atoms: _96  and  _97
REMARK   42  A    between atoms: _100  and  _102
REMARK   43  A    between atoms: _102  and  _103
REMARK   44  A    between atoms: _102  and  _105
REMARK   45  A    between atoms: _105  and  _106
REMARK   46  A    between atoms: _108  and  _110
REMARK   47  A    between atoms: _110  and  _111
REMARK   48  A    between atoms: _110  and  _113
REMARK   49  A    between atoms: _113  and  _114
REMARK   50  A    between atoms: _117  and  _119
REMARK   51  A    between atoms: _119  and  _120
REMARK   52  A    between atoms: _119  and  _122
REMARK   53  A    between atoms: _122  and  _123
REMARK   54  A    between atoms: _123  and  _124
REMARK   55  A    between atoms: _124  and  _125
REMARK   56  A    between atoms: _134  and  _136
REMARK   57  A    between atoms: _136  and  _137
REMARK   58  A    between atoms: _136  and  _139
REMARK   59  A    between atoms: _139  and  _140
REMARK   60  A    between atoms: _140  and  _141
REMARK   61  A    between atoms: _141  and  _142
REMARK   62  A    between atoms: _151  and  _153
REMARK   63  A    between atoms: _153  and  _154
REMARK   64  A    between atoms: _157  and  _159
REMARK   65  A    between atoms: _159  and  _160
REMARK   66  A    between atoms: _163  and  _165
REMARK   67  A    between atoms: _165  and  _166
REMARK   68  A    between atoms: _165  and  _168
REMARK   69  A    between atoms: _168  and  _169
REMARK   70  A    between atoms: _172  and  _174
REMARK   71  A    between atoms: _174  and  _175
REMARK   72  A    between atoms: _174  and  _177
REMARK   73  A    between atoms: _177  and  _178
REMARK   74  A    between atoms: _183  and  _185
REMARK   75  A    between atoms: _185  and  _186
REMARK   76  A    between atoms: _185  and  _188
REMARK   77  A    between atoms: _189  and  _190
REMARK   78  A    between atoms: _195  and  _197
REMARK   79  A    between atoms: _197  and  _198
REMARK   80  A    between atoms: _197  and  _200
REMARK   81  A    between atoms: _203  and  _205
REMARK   82  A    between atoms: _205  and  _206
REMARK   83  A    between atoms: _205  and  _208
REMARK   84  A    between atoms: _208  and  _209
REMARK   85  A    between atoms: _215  and  _217
REMARK   86  A    between atoms: _217  and  _218
REMARK   87  A    between atoms: _217  and  _220
REMARK   88  A    between atoms: _220  and  _221
REMARK   89  A    between atoms: _221  and  _222
REMARK   90  A    between atoms: _224  and  _226
REMARK   91  A    between atoms: _226  and  _227
REMARK   92  A    between atoms: _229  and  _231
REMARK   93  A    between atoms: _231  and  _232
REMARK   94  A    between atoms: _231  and  _234
REMARK   95  A    between atoms: _234  and  _235
REMARK   96  A    between atoms: _235  and  _236
REMARK   97  A    between atoms: _239  and  _241
REMARK   98  A    between atoms: _241  and  _242
REMARK   99  A    between atoms: _244  and  _246
REMARK  100  A    between atoms: _246  and  _247
REMARK  101  A    between atoms: _246  and  _249
REMARK  102  A    between atoms: _252  and  _254
REMARK  103  A    between atoms: _254  and  _255
REMARK  104  A    between atoms: _258  and  _260
REMARK  105  A    between atoms: _260  and  _261
REMARK  106  A    between atoms: _260  and  _263
REMARK  107  A    between atoms: _263  and  _264
REMARK  108  A    between atoms: _270  and  _272
REMARK  109  A    between atoms: _272  and  _273
REMARK  110  A    between atoms: _272  and  _275
REMARK  111  A    between atoms: _275  and  _276
REMARK  112  A    between atoms: _278  and  _280
REMARK  113  A    between atoms: _280  and  _281
REMARK  114  A    between atoms: _280  and  _283
REMARK  115  A    between atoms: _283  and  _284
REMARK  116  A    between atoms: _287  and  _289
REMARK  117  A    between atoms: _289  and  _290
REMARK  118  A    between atoms: _289  and  _292
REMARK  119  A    between atoms: _292  and  _293
REMARK  120  A    between atoms: _296  and  _298
REMARK  121  A    between atoms: _298  and  _299
REMARK  122  A    between atoms: _298  and  _301
REMARK  123  A    between atoms: _301  and  _302
REMARK  124  A    between atoms: _302  and  _303
REMARK  125  A    between atoms: _308  and  _310
REMARK  126  A    between atoms: _310  and  _311
REMARK  127  A    between atoms: _310  and  _313
REMARK  128  A    between atoms: _313  and  _314
REMARK  129  A    between atoms: _317  and  _319
REMARK  130  A    between atoms: _319  and  _320
REMARK  131  A    between atoms: _319  and  _322
REMARK  132  A    between atoms: _325  and  _327
REMARK  133  A    between atoms: _327  and  _328
REMARK  134  A    between atoms: _327  and  _330
REMARK  135  A    between atoms: _330  and  _331
REMARK                            x       y       z     vdW  Elec       q    Type
REMARK                         _______ _______ _______ _____ _____    ______ ____
ROOT
ATOM      1  CA  LEU A   1      31.070  11.579  -4.978  0.00  0.00    +0.133 C 
ENDROOT
BRANCH   1   2
ATOM      2  N   LEU A   1      30.594  11.061  -6.266  0.00  0.00    -0.239 NA
ATOM      3  H   LEU A   1      30.760  10.071  -6.537  0.00  0.00    +0.142 HD
ENDBRANCH   1   2
BRANCH   1   4
ATOM      4  C   LEU A   1      32.093  12.721  -5.159  0.00  0.00    +0.224 C 
ATOM      5  O   LEU A   1      32.226  13.630  -4.328  0.00  0.00    -0.287 OA
ENDBRANCH   1   4
BRANCH   1   6
ATOM      6  CB  LEU A   1      31.733  10.407  -4.084  0.00  0.00    +0.025 C 
BRANCH   6   7
ATOM      7  CG  LEU A   1      30.840   9.371  -3.308  0.00  0.00    +0.002 C 
ATOM      8  CD2 LEU A   1      30.261  10.013  -2.022  0.00  0.00    +0.000 C 
ATOM      9  CD1 LEU A   1      31.726   8.160  -2.901  0.00  0.00    +0.000 C 
ENDBRANCH   6   7
ENDBRANCH   1   6
TORSDOF 4
REMARK  Name = ../refined-set-2016/1li6/1li6_pocket.pdb
REMARK  135 active torsions:
REMARK  status: ('A' for Active; 'I' for Inactive)
REMARK    1  A    between atoms: _1  and  _3
REMARK    2  A    between atoms: _3  and  _4
REMARK    3  A    between atoms: _7  and  _9
REMARK    4  A    between atoms: _9  and  _10
REMARK    5  A    between atoms: _9  and  _12
REMARK    6  A    between atoms: _12  and  _13
REMARK    7  A    between atoms: _16  and  _18
REMARK    8  A    between atoms: _18  and  _19
REMARK    9  A    between atoms: _18  and  _21
REMARK   10  A    between atoms: _21  and  _22
REMARK   11  A    between atoms: _27  and  _29
REMARK   12  A    between atoms: _29  and  _30
REMARK   13  A    between atoms: _29  and  _32
REMARK   14  A    between atoms: _32  and  _33
REMARK   15  A    between atoms: _33  and  _34
REMARK   16  A    between atoms: _34  and  _35
REMARK   17  A    between atoms: _35  and  _36
REMARK   18  A    between atoms: _40  and  _42
REMARK   19  A    between atoms: _42  and  _43
REMARK   20  A    between atoms: _42  and  _45
REMARK   21  A    between atoms: _45  and  _46
REMARK   22  A    between atoms: _49  and  _51
REMARK   23  A    between atoms: _51  and  _52
REMARK   24  A    between atoms: _51  and  _54
REMARK   25  A    between atoms: _54  and  _55
REMARK   26  A    between atoms: _55  and  _56
REMARK   27  A    between atoms: _56  and  _57
REMARK   28  A    between atoms: _57  and  _58
REMARK   29  A    between atoms: _63  and  _64
REMARK   30  A    between atoms: _69  and  _71
REMARK   31  A    between atoms: _71  and  _72
REMARK   32  A    between atoms: _71  and  _74
REMARK   33  A    between atoms: _77  and  _79
REMARK   34  A    between atoms: _79  and  _80
REMARK   35  A    between atoms: _79  and  _82
REMARK   36  A    between atoms: _82  and  _83
REMARK   37  A    between atoms: _88  and  _89
REMARK   38  A    between atoms: _91  and  _93
REMARK   39  A    between atoms: _93  and  _94
REMARK   40  A    between atoms: _93  and  _96
REMARK   41  A    between atoms: _96  and  _97
REMARK   42  A    between atoms: _100  and  _102
REMARK   43  A    between atoms: _102  and  _103
REMARK   44  A    between atoms: _102  and  _105
REMARK   45  A    between atoms: _105  and  _106
REMARK   46  A    between atoms: _108  and  _110
REMARK   47  A    between atoms: _110  and  _111
REMARK   48  A    between atoms: _110  and  _113
REMARK   49  A    between atoms: _113  and  _114
REMARK   50  A    between atoms: _117  and  _119
REMARK   51  A    between atoms: _119  and  _120
REMARK   52  A    between atoms: _119  and  _122
REMARK   53  A    between atoms: _122  and  _123
REMARK   54  A    between atoms: _123  and  _124
REMARK   55  A    between atoms: _124  and  _125
REMARK   56  A    between atoms: _134  and  _136
REMARK   57  A    between atoms: _136  and  _137
REMARK   58  A    between atoms: _136  and  _139
REMARK   59  A    between atoms: _139  and  _140
REMARK   60  A    between atoms: _140  and  _141
REMARK   61  A    between atoms: _141  and  _142
REMARK   62  A    between atoms: _151  and  _153
REMARK   63  A    between atoms: _153  and  _154
REMARK   64  A    between atoms: _157  and  _159
REMARK   65  A    between atoms: _159  and  _160
REMARK   66  A    between atoms: _163  and  _165
REMARK   67  A    between atoms: _165  and  _166
REMARK   68  A    between atoms: _165  and  _168
REMARK   69  A    between atoms: _168  and  _169
REMARK   70  A    between atoms: _172  and  _174
REMARK   71  A    between atoms: _174  and  _175
REMARK   72  A    between atoms: _174  and  _177
REMARK   73  A    between atoms: _177  and  _178
REMARK   74  A    between atoms: _183  and  _185
REMARK   75  A    between atoms: _185  and  _186
REMARK   76  A    between atoms: _185  and  _188
REMARK   77  A    between atoms: _189  and  _190
REMARK   78  A    between atoms: _195  and  _197
REMARK   79  A    between atoms: _197  and  _198
REMARK   80  A    between atoms: _197  and  _200
REMARK   81  A    between atoms: _203  and  _205
REMARK   82  A    between atoms: _205  and  _206
REMARK   83  A    between atoms: _205  and  _208
REMARK   84  A    between atoms: _208  and  _209
REMARK   85  A    between atoms: _215  and  _217
REMARK   86  A    between atoms: _217  and  _218
REMARK   87  A    between atoms: _217  and  _220
REMARK   88  A    between atoms: _220  and  _221
REMARK   89  A    between atoms: _221  and  _222
REMARK   90  A    between atoms: _224  and  _226
REMARK   91  A    between atoms: _226  and  _227
REMARK   92  A    between atoms: _229  and  _231
REMARK   93  A    between atoms: _231  and  _232
REMARK   94  A    between atoms: _231  and  _234
REMARK   95  A    between atoms: _234  and  _235
REMARK   96  A    between atoms: _235  and  _236
REMARK   97  A    between atoms: _239  and  _241
REMARK   98  A    between atoms: _241  and  _242
REMARK   99  A    between atoms: _244  and  _246
REMARK  100  A    between atoms: _246  and  _247
REMARK  101  A    between atoms: _246  and  _249
REMARK  102  A    between atoms: _252  and  _254
REMARK  103  A    between atoms: _254  and  _255
REMARK  104  A    between atoms: _258  and  _260
REMARK  105  A    between atoms: _260  and  _261
REMARK  106  A    between atoms: _260  and  _263
REMARK  107  A    between atoms: _263  and  _264
REMARK  108  A    between atoms: _270  and  _272
REMARK  109  A    between atoms: _272  and  _273
REMARK  110  A    between atoms: _272  and  _275
REMARK  111  A    between atoms: _275  and  _276
REMARK  112  A    between atoms: _278  and  _280
REMARK  113  A    between atoms: _280  and  _281
REMARK  114  A    between atoms: _280  and  _283
REMARK  115  A    between atoms: _283  and  _284
REMARK  116  A    between atoms: _287  and  _289
REMARK  117  A    between atoms: _289  and  _290
REMARK  118  A    between atoms: _289  and  _292
REMARK  119  A    between atoms: _292  and  _293
REMARK  120  A    between atoms: _296  and  _298
REMARK  121  A    between atoms: _298  and  _299
REMARK  122  A    between atoms: _298  and  _301
REMARK  123  A    between atoms: _301  and  _302
REMARK  124  A    between atoms: _302  and  _303
REMARK  125  A    between atoms: _308  and  _310
REMARK  126  A    between atoms: _310  and  _311
REMARK  127  A    between atoms: _310  and  _313
REMARK  128  A    between atoms: _313  and  _314
REMARK  129  A    between atoms: _317  and  _319
REMARK  130  A    between atoms: _319  and  _320
REMARK  131  A    between atoms: _319  and  _322
REMARK  132  A    between atoms: _325  and  _327
REMARK  133  A    between atoms: _327  and  _328
REMARK  134  A    between atoms: _327  and  _330
REMARK  135  A    between atoms: _330  and  _331
REMARK                            x       y       z     vdW  Elec       q    Type
REMARK                         _______ _______ _______ _____ _____    ______ ____
ROOT
ATOM      1  CA  VAL A   1      37.834   7.557   1.011  0.00  0.00    +0.133 C 
ENDROOT
BRANCH   1   2
ATOM      2  CB  VAL A   1      36.923   8.570   1.704  0.00  0.00    +0.023 C 
ATOM      3  CG2 VAL A   1      37.591   8.948   3.049  0.00  0.00    +0.002 C 
ATOM      4  CG1 VAL A   1      35.503   7.997   1.928  0.00  0.00    +0.002 C 
ENDBRANCH   1   2
BRANCH   1   5
ATOM      5  N   VAL A   1      39.135   8.149   0.625  0.00  0.00    -0.239 NA
ATOM      6  H   VAL A   1      39.291   9.175   0.686  0.00  0.00    +0.142 HD
ENDBRANCH   1   5
BRANCH   1   7
ATOM      7  C   VAL A   1      37.045   6.997  -0.151  0.00  0.00    +0.224 C 
ATOM      8  O   VAL A   1      36.377   5.959  -0.087  0.00  0.00    -0.287 OA
ENDBRANCH   1   7
TORSDOF 3
REMARK  Name = ../refined-set-2016/1li6/1li6_pocket.pdb
REMARK  135 active torsions:
REMARK  status: ('A' for Active; 'I' for Inactive)
REMARK    1  A    between atoms: _1  and  _3
REMARK    2  A    between atoms: _3  and  _4
REMARK    3  A    between atoms: _7  and  _9
REMARK    4  A    between atoms: _9  and  _10
REMARK    5  A    between atoms: _9  and  _12
REMARK    6  A    between atoms: _12  and  _13
REMARK    7  A    between atoms: _16  and  _18
REMARK    8  A    between atoms: _18  and  _19
REMARK    9  A    between atoms: _18  and  _21
REMARK   10  A    between atoms: _21  and  _22
REMARK   11  A    between atoms: _27  and  _29
REMARK   12  A    between atoms: _29  and  _30
REMARK   13  A    between atoms: _29  and  _32
REMARK   14  A    between atoms: _32  and  _33
REMARK   15  A    between atoms: _33  and  _34
REMARK   16  A    between atoms: _34  and  _35
REMARK   17  A    between atoms: _35  and  _36
REMARK   18  A    between atoms: _40  and  _42
REMARK   19  A    between atoms: _42  and  _43
REMARK   20  A    between atoms: _42  and  _45
REMARK   21  A    between atoms: _45  and  _46
REMARK   22  A    between atoms: _49  and  _51
REMARK   23  A    between atoms: _51  and  _52
REMARK   24  A    between atoms: _51  and  _54
REMARK   25  A    between atoms: _54  and  _55
REMARK   26  A    between atoms: _55  and  _56
REMARK   27  A    between atoms: _56  and  _57
REMARK   28  A    between atoms: _57  and  _58
REMARK   29  A    between atoms: _63  and  _64
REMARK   30  A    between atoms: _69  and  _71
REMARK   31  A    between atoms: _71  and  _72
REMARK   32  A    between atoms: _71  and  _74
REMARK   33  A    between atoms: _77  and  _79
REMARK   34  A    between atoms: _79  and  _80
REMARK   35  A    between atoms: _79  and  _82
REMARK   36  A    between atoms: _82  and  _83
REMARK   37  A    between atoms: _88  and  _89
REMARK   38  A    between atoms: _91  and  _93
REMARK   39  A    between atoms: _93  and  _94
REMARK   40  A    between atoms: _93  and  _96
REMARK   41  A    between atoms: _96  and  _97
REMARK   42  A    between atoms: _100  and  _102
REMARK   43  A    between atoms: _102  and  _103
REMARK   44  A    between atoms: _102  and  _105
REMARK   45  A    between atoms: _105  and  _106
REMARK   46  A    between atoms: _108  and  _110
REMARK   47  A    between atoms: _110  and  _111
REMARK   48  A    between atoms: _110  and  _113
REMARK   49  A    between atoms: _113  and  _114
REMARK   50  A    between atoms: _117  and  _119
REMARK   51  A    between atoms: _119  and  _120
REMARK   52  A    between atoms: _119  and  _122
REMARK   53  A    between atoms: _122  and  _123
REMARK   54  A    between atoms: _123  and  _124
REMARK   55  A    between atoms: _124  and  _125
REMARK   56  A    between atoms: _134  and  _136
REMARK   57  A    between atoms: _136  and  _137
REMARK   58  A    between atoms: _136  and  _139
REMARK   59  A    between atoms: _139  and  _140
REMARK   60  A    between atoms: _140  and  _141
REMARK   61  A    between atoms: _141  and  _142
REMARK   62  A    between atoms: _151  and  _153
REMARK   63  A    between atoms: _153  and  _154
REMARK   64  A    between atoms: _157  and  _159
REMARK   65  A    between atoms: _159  and  _160
REMARK   66  A    between atoms: _163  and  _165
REMARK   67  A    between atoms: _165  and  _166
REMARK   68  A    between atoms: _165  and  _168
REMARK   69  A    between atoms: _168  and  _169
REMARK   70  A    between atoms: _172  and  _174
REMARK   71  A    between atoms: _174  and  _175
REMARK   72  A    between atoms: _174  and  _177
REMARK   73  A    between atoms: _177  and  _178
REMARK   74  A    between atoms: _183  and  _185
REMARK   75  A    between atoms: _185  and  _186
REMARK   76  A    between atoms: _185  and  _188
REMARK   77  A    between atoms: _189  and  _190
REMARK   78  A    between atoms: _195  and  _197
REMARK   79  A    between atoms: _197  and  _198
REMARK   80  A    between atoms: _197  and  _200
REMARK   81  A    between atoms: _203  and  _205
REMARK   82  A    between atoms: _205  and  _206
REMARK   83  A    between atoms: _205  and  _208
REMARK   84  A    between atoms: _208  and  _209
REMARK   85  A    between atoms: _215  and  _217
REMARK   86  A    between atoms: _217  and  _218
REMARK   87  A    between atoms: _217  and  _220
REMARK   88  A    between atoms: _220  and  _221
REMARK   89  A    between atoms: _221  and  _222
REMARK   90  A    between atoms: _224  and  _226
REMARK   91  A    between atoms: _226  and  _227
REMARK   92  A    between atoms: _229  and  _231
REMARK   93  A    between atoms: _231  and  _232
REMARK   94  A    between atoms: _231  and  _234
REMARK   95  A    between atoms: _234  and  _235
REMARK   96  A    between atoms: _235  and  _236
REMARK   97  A    between atoms: _239  and  _241
REMARK   98  A    between atoms: _241  and  _242
REMARK   99  A    between atoms: _244  and  _246
REMARK  100  A    between atoms: _246  and  _247
REMARK  101  A    between atoms: _246  and  _249
REMARK  102  A    between atoms: _252  and  _254
REMARK  103  A    between atoms: _254  and  _255
REMARK  104  A    between atoms: _258  and  _260
REMARK  105  A    between atoms: _260  and  _261
REMARK  106  A    between atoms: _260  and  _263
REMARK  107  A    between atoms: _263  and  _264
REMARK  108  A    between atoms: _270  and  _272
REMARK  109  A    between atoms: _272  and  _273
REMARK  110  A    between atoms: _272  and  _275
REMARK  111  A    between atoms: _275  and  _276
REMARK  112  A    between atoms: _278  and  _280
REMARK  113  A    between atoms: _280  and  _281
REMARK  114  A    between atoms: _280  and  _283
REMARK  115  A    between atoms: _283  and  _284
REMARK  116  A    between atoms: _287  and  _289
REMARK  117  A    between atoms: _289  and  _290
REMARK  118  A    between atoms: _289  and  _292
REMARK  119  A    between atoms: _292  and  _293
REMARK  120  A    between atoms: _296  and  _298
REMARK  121  A    between atoms: _298  and  _299
REMARK  122  A    between atoms: _298  and  _301
REMARK  123  A    between atoms: _301  and  _302
REMARK  124  A    between atoms: _302  and  _303
REMARK  125  A    between atoms: _308  and  _310
REMARK  126  A    between atoms: _310  and  _311
REMARK  127  A    between atoms: _310  and  _313
REMARK  128  A    between atoms: _313  and  _314
REMARK  129  A    between atoms: _317  and  _319
REMARK  130  A    between atoms: _319  and  _320
REMARK  131  A    between atoms: _319  and  _322
REMARK  132  A    between atoms: _325  and  _327
REMARK  133  A    between atoms: _327  and  _328
REMARK  134  A    between atoms: _327  and  _330
REMARK  135  A    between atoms: _330  and  _331
REMARK                            x       y       z     vdW  Elec       q    Type
REMARK                         _______ _______ _______ _____ _____    ______ ____
ROOT
ATOM      1  CB  PHE A   1      33.419   4.254  -1.823  0.00  0.00    +0.051 C 
ENDROOT
BRANCH   1   2
ATOM      2  CG  PHE A   1      32.830   4.862  -0.570  0.00  0.00    -0.020 A 
ATOM      3  CD2 PHE A   1      31.939   4.125   0.229  0.00  0.00    -0.004 A 
ATOM      4  CE2 PHE A   1      31.295   4.667   1.353  0.00  0.00    -0.000 A 
ATOM      5  CZ  PHE A   1      31.524   6.009   1.672  0.00  0.00    -0.000 A 
ATOM      6  CE1 PHE A   1      32.404   6.756   0.879  0.00  0.00    -0.000 A 
ATOM      7  CD1 PHE A   1      33.050   6.204  -0.239  0.00  0.00    -0.004 A 
ENDBRANCH   1   2
BRANCH   1   8
ATOM      8  CA  PHE A   1      34.282   3.002  -1.571  0.00  0.00    +0.137 C 
BRANCH   8   9
ATOM      9  N   PHE A   1      35.625   3.372  -1.159  0.00  0.00    -0.239 NA
ATOM     10  H   PHE A   1      35.895   4.372  -1.069  0.00  0.00    +0.142 HD
ENDBRANCH   8   9
BRANCH   8  11
ATOM     11  C   PHE A   1      34.303   2.334  -2.932  0.00  0.00    +0.224 C 
ATOM     12  O   PHE A   1      33.530   1.427  -3.249  0.00  0.00    -0.287 OA
ENDBRANCH   8  11
ENDBRANCH   1   8
TORSDOF 4
REMARK  Name = ../refined-set-2016/1li6/1li6_pocket.pdb
REMARK  135 active torsions:
REMARK  status: ('A' for Active; 'I' for Inactive)
REMARK    1  A    between atoms: _1  and  _3
REMARK    2  A    between atoms: _3  and  _4
REMARK    3  A    between atoms: _7  and  _9
REMARK    4  A    between atoms: _9  and  _10
REMARK    5  A    between atoms: _9  and  _12
REMARK    6  A    between atoms: _12  and  _13
REMARK    7  A    between atoms: _16  and  _18
REMARK    8  A    between atoms: _18  and  _19
REMARK    9  A    between atoms: _18  and  _21
REMARK   10  A    between atoms: _21  and  _22
REMARK   11  A    between atoms: _27  and  _29
REMARK   12  A    between atoms: _29  and  _30
REMARK   13  A    between atoms: _29  and  _32
REMARK   14  A    between atoms: _32  and  _33
REMARK   15  A    between atoms: _33  and  _34
REMARK   16  A    between atoms: _34  and  _35
REMARK   17  A    between atoms: _35  and  _36
REMARK   18  A    between atoms: _40  and  _42
REMARK   19  A    between atoms: _42  and  _43
REMARK   20  A    between atoms: _42  and  _45
REMARK   21  A    between atoms: _45  and  _46
REMARK   22  A    between atoms: _49  and  _51
REMARK   23  A    between atoms: _51  and  _52
REMARK   24  A    between atoms: _51  and  _54
REMARK   25  A    between atoms: _54  and  _55
REMARK   26  A    between atoms: _55  and  _56
REMARK   27  A    between atoms: _56  and  _57
REMARK   28  A    between atoms: _57  and  _58
REMARK   29  A    between atoms: _63  and  _64
REMARK   30  A    between atoms: _69  and  _71
REMARK   31  A    between atoms: _71  and  _72
REMARK   32  A    between atoms: _71  and  _74
REMARK   33  A    between atoms: _77  and  _79
REMARK   34  A    between atoms: _79  and  _80
REMARK   35  A    between atoms: _79  and  _82
REMARK   36  A    between atoms: _82  and  _83
REMARK   37  A    between atoms: _88  and  _89
REMARK   38  A    between atoms: _91  and  _93
REMARK   39  A    between atoms: _93  and  _94
REMARK   40  A    between atoms: _93  and  _96
REMARK   41  A    between atoms: _96  and  _97
REMARK   42  A    between atoms: _100  and  _102
REMARK   43  A    between atoms: _102  and  _103
REMARK   44  A    between atoms: _102  and  _105
REMARK   45  A    between atoms: _105  and  _106
REMARK   46  A    between atoms: _108  and  _110
REMARK   47  A    between atoms: _110  and  _111
REMARK   48  A    between atoms: _110  and  _113
REMARK   49  A    between atoms: _113  and  _114
REMARK   50  A    between atoms: _117  and  _119
REMARK   51  A    between atoms: _119  and  _120
REMARK   52  A    between atoms: _119  and  _122
REMARK   53  A    between atoms: _122  and  _123
REMARK   54  A    between atoms: _123  and  _124
REMARK   55  A    between atoms: _124  and  _125
REMARK   56  A    between atoms: _134  and  _136
REMARK   57  A    between atoms: _136  and  _137
REMARK   58  A    between atoms: _136  and  _139
REMARK   59  A    between atoms: _139  and  _140
REMARK   60  A    between atoms: _140  and  _141
REMARK   61  A    between atoms: _141  and  _142
REMARK   62  A    between atoms: _151  and  _153
REMARK   63  A    between atoms: _153  and  _154
REMARK   64  A    between atoms: _157  and  _159
REMARK   65  A    between atoms: _159  and  _160
REMARK   66  A    between atoms: _163  and  _165
REMARK   67  A    between atoms: _165  and  _166
REMARK   68  A    between atoms: _165  and  _168
REMARK   69  A    between atoms: _168  and  _169
REMARK   70  A    between atoms: _172  and  _174
REMARK   71  A    between atoms: _174  and  _175
REMARK   72  A    between atoms: _174  and  _177
REMARK   73  A    between atoms: _177  and  _178
REMARK   74  A    between atoms: _183  and  _185
REMARK   75  A    between atoms: _185  and  _186
REMARK   76  A    between atoms: _185  and  _188
REMARK   77  A    between atoms: _189  and  _190
REMARK   78  A    between atoms: _195  and  _197
REMARK   79  A    between atoms: _197  and  _198
REMARK   80  A    between atoms: _197  and  _200
REMARK   81  A    between atoms: _203  and  _205
REMARK   82  A    between atoms: _205  and  _206
REMARK   83  A    between atoms: _205  and  _208
REMARK   84  A    between atoms: _208  and  _209
REMARK   85  A    between atoms: _215  and  _217
REMARK   86  A    between atoms: _217  and  _218
REMARK   87  A    between atoms: _217  and  _220
REMARK   88  A    between atoms: _220  and  _221
REMARK   89  A    between atoms: _221  and  _222
REMARK   90  A    between atoms: _224  and  _226
REMARK   91  A    between atoms: _226  and  _227
REMARK   92  A    between atoms: _229  and  _231
REMARK   93  A    between atoms: _231  and  _232
REMARK   94  A    between atoms: _231  and  _234
REMARK   95  A    between atoms: _234  and  _235
REMARK   96  A    between atoms: _235  and  _236
REMARK   97  A    between atoms: _239  and  _241
REMARK   98  A    between atoms: _241  and  _242
REMARK   99  A    between atoms: _244  and  _246
REMARK  100  A    between atoms: _246  and  _247
REMARK  101  A    between atoms: _246  and  _249
REMARK  102  A    between atoms: _252  and  _254
REMARK  103  A    between atoms: _254  and  _255
REMARK  104  A    between atoms: _258  and  _260
REMARK  105  A    between atoms: _260  and  _261
REMARK  106  A    between atoms: _260  and  _263
REMARK  107  A    between atoms: _263  and  _264
REMARK  108  A    between atoms: _270  and  _272
REMARK  109  A    between atoms: _272  and  _273
REMARK  110  A    between atoms: _272  and  _275
REMARK  111  A    between atoms: _275  and  _276
REMARK  112  A    between atoms: _278  and  _280
REMARK  113  A    between atoms: _280  and  _281
REMARK  114  A    between atoms: _280  and  _283
REMARK  115  A    between atoms: _283  and  _284
REMARK  116  A    between atoms: _287  and  _289
REMARK  117  A    between atoms: _289  and  _290
REMARK  118  A    between atoms: _289  and  _292
REMARK  119  A    between atoms: _292  and  _293
REMARK  120  A    between atoms: _296  and  _298
REMARK  121  A    between atoms: _298  and  _299
REMARK  122  A    between atoms: _298  and  _301
REMARK  123  A    between atoms: _301  and  _302
REMARK  124  A    between atoms: _302  and  _303
REMARK  125  A    between atoms: _308  and  _310
REMARK  126  A    between atoms: _310  and  _311
REMARK  127  A    between atoms: _310  and  _313
REMARK  128  A    between atoms: _313  and  _314
REMARK  129  A    between atoms: _317  and  _319
REMARK  130  A    between atoms: _319  and  _320
REMARK  131  A    between atoms: _319  and  _322
REMARK  132  A    between atoms: _325  and  _327
REMARK  133  A    between atoms: _327  and  _328
REMARK  134  A    between atoms: _327  and  _330
REMARK  135  A    between atoms: _330  and  _331
REMARK                            x       y       z     vdW  Elec       q    Type
REMARK                         _______ _______ _______ _____ _____    ______ ____
ROOT
ATOM      1  O   HOH     1      18.809   6.171   1.376  0.00  0.00    +0.000 OA
ENDROOT
TORSDOF 0
