REMARK  Name = ../refined-set-2016/1c5q/1c5q_pocket.pdb
REMARK  128 active torsions:
REMARK  status: ('A' for Active; 'I' for Inactive)
REMARK    1  A    between atoms: _1  and  _3
REMARK    2  A    between atoms: _3  and  _4
REMARK    3  A    between atoms: _3  and  _6
REMARK    4  A    between atoms: _9  and  _11
REMARK    5  A    between atoms: _11  and  _12
REMARK    6  A    between atoms: _11  and  _14
REMARK    7  A    between atoms: _16  and  _18
REMARK    8  A    between atoms: _18  and  _19
REMARK    9  A    between atoms: _18  and  _21
REMARK   10  A    between atoms: _21  and  _22
REMARK   11  A    between atoms: _27  and  _29
REMARK   12  A    between atoms: _29  and  _30
REMARK   13  A    between atoms: _29  and  _32
REMARK   14  A    between atoms: _32  and  _33
REMARK   15  A    between atoms: _36  and  _38
REMARK   16  A    between atoms: _38  and  _39
REMARK   17  A    between atoms: _38  and  _41
REMARK   18  A    between atoms: _41  and  _42
REMARK   19  A    between atoms: _45  and  _47
REMARK   20  A    between atoms: _47  and  _48
REMARK   21  A    between atoms: _47  and  _50
REMARK   22  A    between atoms: _50  and  _51
REMARK   23  A    between atoms: _54  and  _56
REMARK   24  A    between atoms: _56  and  _57
REMARK   25  A    between atoms: _56  and  _59
REMARK   26  A    between atoms: _59  and  _60
REMARK   27  A    between atoms: _65  and  _67
REMARK   28  A    between atoms: _67  and  _68
REMARK   29  A    between atoms: _67  and  _70
REMARK   30  A    between atoms: _70  and  _71
REMARK   31  A    between atoms: _73  and  _75
REMARK   32  A    between atoms: _75  and  _76
REMARK   33  A    between atoms: _75  and  _78
REMARK   34  A    between atoms: _78  and  _79
REMARK   35  A    between atoms: _84  and  _85
REMARK   36  A    between atoms: _87  and  _89
REMARK   37  A    between atoms: _89  and  _90
REMARK   38  A    between atoms: _93  and  _95
REMARK   39  A    between atoms: _95  and  _96
REMARK   40  A    between atoms: _95  and  _98
REMARK   41  A    between atoms: _98  and  _99
REMARK   42  A    between atoms: _99  and  _100
REMARK   43  A    between atoms: _100  and  _101
REMARK   44  A    between atoms: _101  and  _102
REMARK   45  A    between atoms: _106  and  _108
REMARK   46  A    between atoms: _108  and  _109
REMARK   47  A    between atoms: _108  and  _111
REMARK   48  A    between atoms: _111  and  _112
REMARK   49  A    between atoms: _115  and  _117
REMARK   50  A    between atoms: _117  and  _118
REMARK   51  A    between atoms: _117  and  _120
REMARK   52  A    between atoms: _120  and  _121
REMARK   53  A    between atoms: _123  and  _125
REMARK   54  A    between atoms: _125  and  _126
REMARK   55  A    between atoms: _125  and  _128
REMARK   56  A    between atoms: _128  and  _129
REMARK   57  A    between atoms: _129  and  _239
REMARK   58  A    between atoms: _130  and  _132
REMARK   59  A    between atoms: _132  and  _133
REMARK   60  A    between atoms: _132  and  _135
REMARK   61  A    between atoms: _135  and  _136
REMARK   62  A    between atoms: _136  and  _137
REMARK   63  A    between atoms: _142  and  _144
REMARK   64  A    between atoms: _144  and  _145
REMARK   65  A    between atoms: _147  and  _149
REMARK   66  A    between atoms: _149  and  _150
REMARK   67  A    between atoms: _149  and  _152
REMARK   68  A    between atoms: _152  and  _153
REMARK   69  A    between atoms: _156  and  _158
REMARK   70  A    between atoms: _158  and  _159
REMARK   71  A    between atoms: _158  and  _161
REMARK   72  A    between atoms: _161  and  _162
REMARK   73  A    between atoms: _164  and  _166
REMARK   74  A    between atoms: _166  and  _167
REMARK   75  A    between atoms: _169  and  _171
REMARK   76  A    between atoms: _171  and  _172
REMARK   77  A    between atoms: _174  and  _176
REMARK   78  A    between atoms: _176  and  _177
REMARK   79  A    between atoms: _176  and  _179
REMARK   80  A    between atoms: _179  and  _180
REMARK   81  A    between atoms: _183  and  _185
REMARK   82  A    between atoms: _185  and  _186
REMARK   83  A    between atoms: _185  and  _188
REMARK   84  A    between atoms: _191  and  _193
REMARK   85  A    between atoms: _193  and  _194
REMARK   86  A    between atoms: _193  and  _196
REMARK   87  A    between atoms: _196  and  _197
REMARK   88  A    between atoms: _199  and  _201
REMARK   89  A    between atoms: _201  and  _202
REMARK   90  A    between atoms: _201  and  _204
REMARK   91  A    between atoms: _204  and  _205
REMARK   92  A    between atoms: _215  and  _217
REMARK   93  A    between atoms: _217  and  _218
REMARK   94  A    between atoms: _220  and  _222
REMARK   95  A    between atoms: _222  and  _223
REMARK   96  A    between atoms: _222  and  _225
REMARK   97  A    between atoms: _225  and  _226
REMARK   98  A    between atoms: _228  and  _230
REMARK   99  A    between atoms: _230  and  _231
REMARK  100  A    between atoms: _233  and  _235
REMARK  101  A    between atoms: _235  and  _236
REMARK  102  A    between atoms: _235  and  _238
REMARK  103  A    between atoms: _238  and  _239
REMARK  104  A    between atoms: _240  and  _242
REMARK  105  A    between atoms: _242  and  _243
REMARK  106  A    between atoms: _246  and  _248
REMARK  107  A    between atoms: _248  and  _249
REMARK  108  A    between atoms: _248  and  _251
REMARK  109  A    between atoms: _251  and  _252
REMARK  110  A    between atoms: _252  and  _253
REMARK  111  A    between atoms: _258  and  _260
REMARK  112  A    between atoms: _260  and  _261
REMARK  113  A    between atoms: _260  and  _263
REMARK  114  A    between atoms: _263  and  _264
REMARK  115  A    between atoms: _264  and  _265
REMARK  116  A    between atoms: _265  and  _266
REMARK  117  A    between atoms: _266  and  _267
REMARK  118  A    between atoms: _272  and  _273
REMARK  119  A    between atoms: _278  and  _280
REMARK  120  A    between atoms: _280  and  _281
REMARK  121  A    between atoms: _283  and  _285
REMARK  122  A    between atoms: _285  and  _286
REMARK  123  A    between atoms: _285  and  _288
REMARK  124  A    between atoms: _291  and  _293
REMARK  125  A    between atoms: _293  and  _294
REMARK  126  A    between atoms: _293  and  _296
REMARK  127  A    between atoms: _296  and  _297
REMARK  128  A    between atoms: _302  and  _303
REMARK                            x       y       z     vdW  Elec       q    Type
REMARK                         _______ _______ _______ _____ _____    ______ ____
ROOT
ATOM      1  CA  VAL A   1      52.810  -7.403  24.650  0.00  0.00    +0.133 C 
ENDROOT
BRANCH   1   2
ATOM      2  CB  VAL A   1      51.489  -8.216  24.836  0.00  0.00    +0.023 C 
ATOM      3  CG2 VAL A   1      50.938  -8.003  26.272  0.00  0.00    +0.002 C 
ATOM      4  CG1 VAL A   1      51.716  -9.732  24.586  0.00  0.00    +0.002 C 
ENDBRANCH   1   2
BRANCH   1   5
ATOM      5  N   VAL A   1      52.515  -5.954  24.816  0.00  0.00    -0.239 NA
ATOM      6  H   VAL A   1      51.688  -5.552  24.329  0.00  0.00    +0.142 HD
ENDBRANCH   1   5
BRANCH   1   7
ATOM      7  C   VAL A   1      53.331  -7.520  23.219  0.00  0.00    +0.224 C 
ATOM      8  O   VAL A   1      52.768  -6.914  22.328  0.00  0.00    -0.287 OA
ENDBRANCH   1   7
TORSDOF 3
REMARK  Name = ../refined-set-2016/1c5q/1c5q_pocket.pdb
REMARK  128 active torsions:
REMARK  status: ('A' for Active; 'I' for Inactive)
REMARK    1  A    between atoms: _1  and  _3
REMARK    2  A    between atoms: _3  and  _4
REMARK    3  A    between atoms: _3  and  _6
REMARK    4  A    between atoms: _9  and  _11
REMARK    5  A    between atoms: _11  and  _12
REMARK    6  A    between atoms: _11  and  _14
REMARK    7  A    between atoms: _16  and  _18
REMARK    8  A    between atoms: _18  and  _19
REMARK    9  A    between atoms: _18  and  _21
REMARK   10  A    between atoms: _21  and  _22
REMARK   11  A    between atoms: _27  and  _29
REMARK   12  A    between atoms: _29  and  _30
REMARK   13  A    between atoms: _29  and  _32
REMARK   14  A    between atoms: _32  and  _33
REMARK   15  A    between atoms: _36  and  _38
REMARK   16  A    between atoms: _38  and  _39
REMARK   17  A    between atoms: _38  and  _41
REMARK   18  A    between atoms: _41  and  _42
REMARK   19  A    between atoms: _45  and  _47
REMARK   20  A    between atoms: _47  and  _48
REMARK   21  A    between atoms: _47  and  _50
REMARK   22  A    between atoms: _50  and  _51
REMARK   23  A    between atoms: _54  and  _56
REMARK   24  A    between atoms: _56  and  _57
REMARK   25  A    between atoms: _56  and  _59
REMARK   26  A    between atoms: _59  and  _60
REMARK   27  A    between atoms: _65  and  _67
REMARK   28  A    between atoms: _67  and  _68
REMARK   29  A    between atoms: _67  and  _70
REMARK   30  A    between atoms: _70  and  _71
REMARK   31  A    between atoms: _73  and  _75
REMARK   32  A    between atoms: _75  and  _76
REMARK   33  A    between atoms: _75  and  _78
REMARK   34  A    between atoms: _78  and  _79
REMARK   35  A    between atoms: _84  and  _85
REMARK   36  A    between atoms: _87  and  _89
REMARK   37  A    between atoms: _89  and  _90
REMARK   38  A    between atoms: _93  and  _95
REMARK   39  A    between atoms: _95  and  _96
REMARK   40  A    between atoms: _95  and  _98
REMARK   41  A    between atoms: _98  and  _99
REMARK   42  A    between atoms: _99  and  _100
REMARK   43  A    between atoms: _100  and  _101
REMARK   44  A    between atoms: _101  and  _102
REMARK   45  A    between atoms: _106  and  _108
REMARK   46  A    between atoms: _108  and  _109
REMARK   47  A    between atoms: _108  and  _111
REMARK   48  A    between atoms: _111  and  _112
REMARK   49  A    between atoms: _115  and  _117
REMARK   50  A    between atoms: _117  and  _118
REMARK   51  A    between atoms: _117  and  _120
REMARK   52  A    between atoms: _120  and  _121
REMARK   53  A    between atoms: _123  and  _125
REMARK   54  A    between atoms: _125  and  _126
REMARK   55  A    between atoms: _125  and  _128
REMARK   56  A    between atoms: _128  and  _129
REMARK   57  A    between atoms: _129  and  _239
REMARK   58  A    between atoms: _130  and  _132
REMARK   59  A    between atoms: _132  and  _133
REMARK   60  A    between atoms: _132  and  _135
REMARK   61  A    between atoms: _135  and  _136
REMARK   62  A    between atoms: _136  and  _137
REMARK   63  A    between atoms: _142  and  _144
REMARK   64  A    between atoms: _144  and  _145
REMARK   65  A    between atoms: _147  and  _149
REMARK   66  A    between atoms: _149  and  _150
REMARK   67  A    between atoms: _149  and  _152
REMARK   68  A    between atoms: _152  and  _153
REMARK   69  A    between atoms: _156  and  _158
REMARK   70  A    between atoms: _158  and  _159
REMARK   71  A    between atoms: _158  and  _161
REMARK   72  A    between atoms: _161  and  _162
REMARK   73  A    between atoms: _164  and  _166
REMARK   74  A    between atoms: _166  and  _167
REMARK   75  A    between atoms: _169  and  _171
REMARK   76  A    between atoms: _171  and  _172
REMARK   77  A    between atoms: _174  and  _176
REMARK   78  A    between atoms: _176  and  _177
REMARK   79  A    between atoms: _176  and  _179
REMARK   80  A    between atoms: _179  and  _180
REMARK   81  A    between atoms: _183  and  _185
REMARK   82  A    between atoms: _185  and  _186
REMARK   83  A    between atoms: _185  and  _188
REMARK   84  A    between atoms: _191  and  _193
REMARK   85  A    between atoms: _193  and  _194
REMARK   86  A    between atoms: _193  and  _196
REMARK   87  A    between atoms: _196  and  _197
REMARK   88  A    between atoms: _199  and  _201
REMARK   89  A    between atoms: _201  and  _202
REMARK   90  A    between atoms: _201  and  _204
REMARK   91  A    between atoms: _204  and  _205
REMARK   92  A    between atoms: _215  and  _217
REMARK   93  A    between atoms: _217  and  _218
REMARK   94  A    between atoms: _220  and  _222
REMARK   95  A    between atoms: _222  and  _223
REMARK   96  A    between atoms: _222  and  _225
REMARK   97  A    between atoms: _225  and  _226
REMARK   98  A    between atoms: _228  and  _230
REMARK   99  A    between atoms: _230  and  _231
REMARK  100  A    between atoms: _233  and  _235
REMARK  101  A    between atoms: _235  and  _236
REMARK  102  A    between atoms: _235  and  _238
REMARK  103  A    between atoms: _238  and  _239
REMARK  104  A    between atoms: _240  and  _242
REMARK  105  A    between atoms: _242  and  _243
REMARK  106  A    between atoms: _246  and  _248
REMARK  107  A    between atoms: _248  and  _249
REMARK  108  A    between atoms: _248  and  _251
REMARK  109  A    between atoms: _251  and  _252
REMARK  110  A    between atoms: _252  and  _253
REMARK  111  A    between atoms: _258  and  _260
REMARK  112  A    between atoms: _260  and  _261
REMARK  113  A    between atoms: _260  and  _263
REMARK  114  A    between atoms: _263  and  _264
REMARK  115  A    between atoms: _264  and  _265
REMARK  116  A    between atoms: _265  and  _266
REMARK  117  A    between atoms: _266  and  _267
REMARK  118  A    between atoms: _272  and  _273
REMARK  119  A    between atoms: _278  and  _280
REMARK  120  A    between atoms: _280  and  _281
REMARK  121  A    between atoms: _283  and  _285
REMARK  122  A    between atoms: _285  and  _286
REMARK  123  A    between atoms: _285  and  _288
REMARK  124  A    between atoms: _291  and  _293
REMARK  125  A    between atoms: _293  and  _294
REMARK  126  A    between atoms: _293  and  _296
REMARK  127  A    between atoms: _296  and  _297
REMARK  128  A    between atoms: _302  and  _303
REMARK                            x       y       z     vdW  Elec       q    Type
REMARK                         _______ _______ _______ _____ _____    ______ ____
ROOT
ATOM      1  CA  CYS A   1      49.091   5.381  33.366  0.00  0.00    +0.145 C 
ENDROOT
BRANCH   1   2
ATOM      2  N   CYS A   1      49.580   5.076  34.741  0.00  0.00    -0.238 NA
ATOM      3  H   CYS A   1      50.312   5.682  35.164  0.00  0.00    +0.142 HD
ENDBRANCH   1   2
BRANCH   1   4
ATOM      4  CB  CYS A   1      47.792   6.232  33.429  0.00  0.00    +0.094 C 
ATOM      5  SG  CYS A   1      46.222   5.319  33.629  0.00  0.00    -0.080 S 
ENDBRANCH   1   4
BRANCH   1   6
ATOM      6  C   CYS A   1      50.136   6.149  32.538  0.00  0.00    +0.225 C 
ATOM      7  O   CYS A   1      51.095   6.668  33.075  0.00  0.00    -0.287 OA
ENDBRANCH   1   6
TORSDOF 3
REMARK  Name = ../refined-set-2016/1c5q/1c5q_pocket.pdb
REMARK  128 active torsions:
REMARK  status: ('A' for Active; 'I' for Inactive)
REMARK    1  A    between atoms: _1  and  _3
REMARK    2  A    between atoms: _3  and  _4
REMARK    3  A    between atoms: _3  and  _6
REMARK    4  A    between atoms: _9  and  _11
REMARK    5  A    between atoms: _11  and  _12
REMARK    6  A    between atoms: _11  and  _14
REMARK    7  A    between atoms: _16  and  _18
REMARK    8  A    between atoms: _18  and  _19
REMARK    9  A    between atoms: _18  and  _21
REMARK   10  A    between atoms: _21  and  _22
REMARK   11  A    between atoms: _27  and  _29
REMARK   12  A    between atoms: _29  and  _30
REMARK   13  A    between atoms: _29  and  _32
REMARK   14  A    between atoms: _32  and  _33
REMARK   15  A    between atoms: _36  and  _38
REMARK   16  A    between atoms: _38  and  _39
REMARK   17  A    between atoms: _38  and  _41
REMARK   18  A    between atoms: _41  and  _42
REMARK   19  A    between atoms: _45  and  _47
REMARK   20  A    between atoms: _47  and  _48
REMARK   21  A    between atoms: _47  and  _50
REMARK   22  A    between atoms: _50  and  _51
REMARK   23  A    between atoms: _54  and  _56
REMARK   24  A    between atoms: _56  and  _57
REMARK   25  A    between atoms: _56  and  _59
REMARK   26  A    between atoms: _59  and  _60
REMARK   27  A    between atoms: _65  and  _67
REMARK   28  A    between atoms: _67  and  _68
REMARK   29  A    between atoms: _67  and  _70
REMARK   30  A    between atoms: _70  and  _71
REMARK   31  A    between atoms: _73  and  _75
REMARK   32  A    between atoms: _75  and  _76
REMARK   33  A    between atoms: _75  and  _78
REMARK   34  A    between atoms: _78  and  _79
REMARK   35  A    between atoms: _84  and  _85
REMARK   36  A    between atoms: _87  and  _89
REMARK   37  A    between atoms: _89  and  _90
REMARK   38  A    between atoms: _93  and  _95
REMARK   39  A    between atoms: _95  and  _96
REMARK   40  A    between atoms: _95  and  _98
REMARK   41  A    between atoms: _98  and  _99
REMARK   42  A    between atoms: _99  and  _100
REMARK   43  A    between atoms: _100  and  _101
REMARK   44  A    between atoms: _101  and  _102
REMARK   45  A    between atoms: _106  and  _108
REMARK   46  A    between atoms: _108  and  _109
REMARK   47  A    between atoms: _108  and  _111
REMARK   48  A    between atoms: _111  and  _112
REMARK   49  A    between atoms: _115  and  _117
REMARK   50  A    between atoms: _117  and  _118
REMARK   51  A    between atoms: _117  and  _120
REMARK   52  A    between atoms: _120  and  _121
REMARK   53  A    between atoms: _123  and  _125
REMARK   54  A    between atoms: _125  and  _126
REMARK   55  A    between atoms: _125  and  _128
REMARK   56  A    between atoms: _128  and  _129
REMARK   57  A    between atoms: _129  and  _239
REMARK   58  A    between atoms: _130  and  _132
REMARK   59  A    between atoms: _132  and  _133
REMARK   60  A    between atoms: _132  and  _135
REMARK   61  A    between atoms: _135  and  _136
REMARK   62  A    between atoms: _136  and  _137
REMARK   63  A    between atoms: _142  and  _144
REMARK   64  A    between atoms: _144  and  _145
REMARK   65  A    between atoms: _147  and  _149
REMARK   66  A    between atoms: _149  and  _150
REMARK   67  A    between atoms: _149  and  _152
REMARK   68  A    between atoms: _152  and  _153
REMARK   69  A    between atoms: _156  and  _158
REMARK   70  A    between atoms: _158  and  _159
REMARK   71  A    between atoms: _158  and  _161
REMARK   72  A    between atoms: _161  and  _162
REMARK   73  A    between atoms: _164  and  _166
REMARK   74  A    between atoms: _166  and  _167
REMARK   75  A    between atoms: _169  and  _171
REMARK   76  A    between atoms: _171  and  _172
REMARK   77  A    between atoms: _174  and  _176
REMARK   78  A    between atoms: _176  and  _177
REMARK   79  A    between atoms: _176  and  _179
REMARK   80  A    between atoms: _179  and  _180
REMARK   81  A    between atoms: _183  and  _185
REMARK   82  A    between atoms: _185  and  _186
REMARK   83  A    between atoms: _185  and  _188
REMARK   84  A    between atoms: _191  and  _193
REMARK   85  A    between atoms: _193  and  _194
REMARK   86  A    between atoms: _193  and  _196
REMARK   87  A    between atoms: _196  and  _197
REMARK   88  A    between atoms: _199  and  _201
REMARK   89  A    between atoms: _201  and  _202
REMARK   90  A    between atoms: _201  and  _204
REMARK   91  A    between atoms: _204  and  _205
REMARK   92  A    between atoms: _215  and  _217
REMARK   93  A    between atoms: _217  and  _218
REMARK   94  A    between atoms: _220  and  _222
REMARK   95  A    between atoms: _222  and  _223
REMARK   96  A    between atoms: _222  and  _225
REMARK   97  A    between atoms: _225  and  _226
REMARK   98  A    between atoms: _228  and  _230
REMARK   99  A    between atoms: _230  and  _231
REMARK  100  A    between atoms: _233  and  _235
REMARK  101  A    between atoms: _235  and  _236
REMARK  102  A    between atoms: _235  and  _238
REMARK  103  A    between atoms: _238  and  _239
REMARK  104  A    between atoms: _240  and  _242
REMARK  105  A    between atoms: _242  and  _243
REMARK  106  A    between atoms: _246  and  _248
REMARK  107  A    between atoms: _248  and  _249
REMARK  108  A    between atoms: _248  and  _251
REMARK  109  A    between atoms: _251  and  _252
REMARK  110  A    between atoms: _252  and  _253
REMARK  111  A    between atoms: _258  and  _260
REMARK  112  A    between atoms: _260  and  _261
REMARK  113  A    between atoms: _260  and  _263
REMARK  114  A    between atoms: _263  and  _264
REMARK  115  A    between atoms: _264  and  _265
REMARK  116  A    between atoms: _265  and  _266
REMARK  117  A    between atoms: _266  and  _267
REMARK  118  A    between atoms: _272  and  _273
REMARK  119  A    between atoms: _278  and  _280
REMARK  120  A    between atoms: _280  and  _281
REMARK  121  A    between atoms: _283  and  _285
REMARK  122  A    between atoms: _285  and  _286
REMARK  123  A    between atoms: _285  and  _288
REMARK  124  A    between atoms: _291  and  _293
REMARK  125  A    between atoms: _293  and  _294
REMARK  126  A    between atoms: _293  and  _296
REMARK  127  A    between atoms: _296  and  _297
REMARK  128  A    between atoms: _302  and  _303
REMARK                            x       y       z     vdW  Elec       q    Type
REMARK                         _______ _______ _______ _____ _____    ______ ____
ROOT
ATOM      1  CB  HIS A   1      39.520   5.028  32.622  0.00  0.00    +0.072 C 
ENDROOT
BRANCH   1   2
ATOM      2  CG  HIS A   1      40.595   4.368  31.786  0.00  0.00    +0.082 A 
ATOM      3  CD2 HIS A   1      41.587   3.520  32.171  0.00  0.00    +0.115 A 
ATOM      4  NE2 HIS A   1      42.322   3.109  31.166  0.00  0.00    -0.221 NA
ATOM      5  CE1 HIS A   1      41.743   3.745  30.159  0.00  0.00    +0.199 A 
ATOM      6  ND1 HIS A   1      40.730   4.488  30.524  0.00  0.00    -0.227 NA
ENDBRANCH   1   2
BRANCH   1   7
ATOM      7  CA  HIS A   1      39.797   6.381  33.271  0.00  0.00    +0.139 C 
BRANCH   7   8
ATOM      8  N   HIS A   1      39.796   7.452  32.245  0.00  0.00    -0.239 NA
ATOM      9  H   HIS A   1      39.908   7.232  31.235  0.00  0.00    +0.142 HD
ENDBRANCH   7   8
BRANCH   7  10
ATOM     10  C   HIS A   1      41.108   6.321  34.085  0.00  0.00    +0.224 C 
ATOM     11  O   HIS A   1      41.254   5.478  34.959  0.00  0.00    -0.287 OA
ENDBRANCH   7  10
ENDBRANCH   1   7
TORSDOF 4
REMARK  Name = ../refined-set-2016/1c5q/1c5q_pocket.pdb
REMARK  128 active torsions:
REMARK  status: ('A' for Active; 'I' for Inactive)
REMARK    1  A    between atoms: _1  and  _3
REMARK    2  A    between atoms: _3  and  _4
REMARK    3  A    between atoms: _3  and  _6
REMARK    4  A    between atoms: _9  and  _11
REMARK    5  A    between atoms: _11  and  _12
REMARK    6  A    between atoms: _11  and  _14
REMARK    7  A    between atoms: _16  and  _18
REMARK    8  A    between atoms: _18  and  _19
REMARK    9  A    between atoms: _18  and  _21
REMARK   10  A    between atoms: _21  and  _22
REMARK   11  A    between atoms: _27  and  _29
REMARK   12  A    between atoms: _29  and  _30
REMARK   13  A    between atoms: _29  and  _32
REMARK   14  A    between atoms: _32  and  _33
REMARK   15  A    between atoms: _36  and  _38
REMARK   16  A    between atoms: _38  and  _39
REMARK   17  A    between atoms: _38  and  _41
REMARK   18  A    between atoms: _41  and  _42
REMARK   19  A    between atoms: _45  and  _47
REMARK   20  A    between atoms: _47  and  _48
REMARK   21  A    between atoms: _47  and  _50
REMARK   22  A    between atoms: _50  and  _51
REMARK   23  A    between atoms: _54  and  _56
REMARK   24  A    between atoms: _56  and  _57
REMARK   25  A    between atoms: _56  and  _59
REMARK   26  A    between atoms: _59  and  _60
REMARK   27  A    between atoms: _65  and  _67
REMARK   28  A    between atoms: _67  and  _68
REMARK   29  A    between atoms: _67  and  _70
REMARK   30  A    between atoms: _70  and  _71
REMARK   31  A    between atoms: _73  and  _75
REMARK   32  A    between atoms: _75  and  _76
REMARK   33  A    between atoms: _75  and  _78
REMARK   34  A    between atoms: _78  and  _79
REMARK   35  A    between atoms: _84  and  _85
REMARK   36  A    between atoms: _87  and  _89
REMARK   37  A    between atoms: _89  and  _90
REMARK   38  A    between atoms: _93  and  _95
REMARK   39  A    between atoms: _95  and  _96
REMARK   40  A    between atoms: _95  and  _98
REMARK   41  A    between atoms: _98  and  _99
REMARK   42  A    between atoms: _99  and  _100
REMARK   43  A    between atoms: _100  and  _101
REMARK   44  A    between atoms: _101  and  _102
REMARK   45  A    between atoms: _106  and  _108
REMARK   46  A    between atoms: _108  and  _109
REMARK   47  A    between atoms: _108  and  _111
REMARK   48  A    between atoms: _111  and  _112
REMARK   49  A    between atoms: _115  and  _117
REMARK   50  A    between atoms: _117  and  _118
REMARK   51  A    between atoms: _117  and  _120
REMARK   52  A    between atoms: _120  and  _121
REMARK   53  A    between atoms: _123  and  _125
REMARK   54  A    between atoms: _125  and  _126
REMARK   55  A    between atoms: _125  and  _128
REMARK   56  A    between atoms: _128  and  _129
REMARK   57  A    between atoms: _129  and  _239
REMARK   58  A    between atoms: _130  and  _132
REMARK   59  A    between atoms: _132  and  _133
REMARK   60  A    between atoms: _132  and  _135
REMARK   61  A    between atoms: _135  and  _136
REMARK   62  A    between atoms: _136  and  _137
REMARK   63  A    between atoms: _142  and  _144
REMARK   64  A    between atoms: _144  and  _145
REMARK   65  A    between atoms: _147  and  _149
REMARK   66  A    between atoms: _149  and  _150
REMARK   67  A    between atoms: _149  and  _152
REMARK   68  A    between atoms: _152  and  _153
REMARK   69  A    between atoms: _156  and  _158
REMARK   70  A    between atoms: _158  and  _159
REMARK   71  A    between atoms: _158  and  _161
REMARK   72  A    between atoms: _161  and  _162
REMARK   73  A    between atoms: _164  and  _166
REMARK   74  A    between atoms: _166  and  _167
REMARK   75  A    between atoms: _169  and  _171
REMARK   76  A    between atoms: _171  and  _172
REMARK   77  A    between atoms: _174  and  _176
REMARK   78  A    between atoms: _176  and  _177
REMARK   79  A    between atoms: _176  and  _179
REMARK   80  A    between atoms: _179  and  _180
REMARK   81  A    between atoms: _183  and  _185
REMARK   82  A    between atoms: _185  and  _186
REMARK   83  A    between atoms: _185  and  _188
REMARK   84  A    between atoms: _191  and  _193
REMARK   85  A    between atoms: _193  and  _194
REMARK   86  A    between atoms: _193  and  _196
REMARK   87  A    between atoms: _196  and  _197
REMARK   88  A    between atoms: _199  and  _201
REMARK   89  A    between atoms: _201  and  _202
REMARK   90  A    between atoms: _201  and  _204
REMARK   91  A    between atoms: _204  and  _205
REMARK   92  A    between atoms: _215  and  _217
REMARK   93  A    between atoms: _217  and  _218
REMARK   94  A    between atoms: _220  and  _222
REMARK   95  A    between atoms: _222  and  _223
REMARK   96  A    between atoms: _222  and  _225
REMARK   97  A    between atoms: _225  and  _226
REMARK   98  A    between atoms: _228  and  _230
REMARK   99  A    between atoms: _230  and  _231
REMARK  100  A    between atoms: _233  and  _235
REMARK  101  A    between atoms: _235  and  _236
REMARK  102  A    between atoms: _235  and  _238
REMARK  103  A    between atoms: _238  and  _239
REMARK  104  A    between atoms: _240  and  _242
REMARK  105  A    between atoms: _242  and  _243
REMARK  106  A    between atoms: _246  and  _248
REMARK  107  A    between atoms: _248  and  _249
REMARK  108  A    between atoms: _248  and  _251
REMARK  109  A    between atoms: _251  and  _252
REMARK  110  A    between atoms: _252  and  _253
REMARK  111  A    between atoms: _258  and  _260
REMARK  112  A    between atoms: _260  and  _261
REMARK  113  A    between atoms: _260  and  _263
REMARK  114  A    between atoms: _263  and  _264
REMARK  115  A    between atoms: _264  and  _265
REMARK  116  A    between atoms: _265  and  _266
REMARK  117  A    between atoms: _266  and  _267
REMARK  118  A    between atoms: _272  and  _273
REMARK  119  A    between atoms: _278  and  _280
REMARK  120  A    between atoms: _280  and  _281
REMARK  121  A    between atoms: _283  and  _285
REMARK  122  A    between atoms: _285  and  _286
REMARK  123  A    between atoms: _285  and  _288
REMARK  124  A    between atoms: _291  and  _293
REMARK  125  A    between atoms: _293  and  _294
REMARK  126  A    between atoms: _293  and  _296
REMARK  127  A    between atoms: _296  and  _297
REMARK  128  A    between atoms: _302  and  _303
REMARK                            x       y       z     vdW  Elec       q    Type
REMARK                         _______ _______ _______ _____ _____    ______ ____
ROOT
ATOM      1  CA  LEU A   1      34.301   4.302  27.951  0.00  0.00    +0.133 C 
ENDROOT
BRANCH   1   2
ATOM      2  N   LEU A   1      32.968   3.653  28.158  0.00  0.00    -0.239 NA
ATOM      3  H   LEU A   1      32.433   3.947  29.000  0.00  0.00    +0.142 HD
ENDBRANCH   1   2
BRANCH   1   4
ATOM      4  C   LEU A   1      34.222   5.251  26.762  0.00  0.00    +0.224 C 
ATOM      5  O   LEU A   1      35.211   5.561  26.115  0.00  0.00    -0.287 OA
ENDBRANCH   1   4
BRANCH   1   6
ATOM      6  CB  LEU A   1      35.425   3.237  27.709  0.00  0.00    +0.025 C 
BRANCH   6   7
ATOM      7  CG  LEU A   1      35.588   2.404  29.006  0.00  0.00    +0.002 C 
ATOM      8  CD2 LEU A   1      36.054   3.267  30.203  0.00  0.00    +0.000 C 
ATOM      9  CD1 LEU A   1      36.617   1.282  28.784  0.00  0.00    +0.000 C 
ENDBRANCH   6   7
ENDBRANCH   1   6
TORSDOF 4
REMARK  Name = ../refined-set-2016/1c5q/1c5q_pocket.pdb
REMARK  128 active torsions:
REMARK  status: ('A' for Active; 'I' for Inactive)
REMARK    1  A    between atoms: _1  and  _3
REMARK    2  A    between atoms: _3  and  _4
REMARK    3  A    between atoms: _3  and  _6
REMARK    4  A    between atoms: _9  and  _11
REMARK    5  A    between atoms: _11  and  _12
REMARK    6  A    between atoms: _11  and  _14
REMARK    7  A    between atoms: _16  and  _18
REMARK    8  A    between atoms: _18  and  _19
REMARK    9  A    between atoms: _18  and  _21
REMARK   10  A    between atoms: _21  and  _22
REMARK   11  A    between atoms: _27  and  _29
REMARK   12  A    between atoms: _29  and  _30
REMARK   13  A    between atoms: _29  and  _32
REMARK   14  A    between atoms: _32  and  _33
REMARK   15  A    between atoms: _36  and  _38
REMARK   16  A    between atoms: _38  and  _39
REMARK   17  A    between atoms: _38  and  _41
REMARK   18  A    between atoms: _41  and  _42
REMARK   19  A    between atoms: _45  and  _47
REMARK   20  A    between atoms: _47  and  _48
REMARK   21  A    between atoms: _47  and  _50
REMARK   22  A    between atoms: _50  and  _51
REMARK   23  A    between atoms: _54  and  _56
REMARK   24  A    between atoms: _56  and  _57
REMARK   25  A    between atoms: _56  and  _59
REMARK   26  A    between atoms: _59  and  _60
REMARK   27  A    between atoms: _65  and  _67
REMARK   28  A    between atoms: _67  and  _68
REMARK   29  A    between atoms: _67  and  _70
REMARK   30  A    between atoms: _70  and  _71
REMARK   31  A    between atoms: _73  and  _75
REMARK   32  A    between atoms: _75  and  _76
REMARK   33  A    between atoms: _75  and  _78
REMARK   34  A    between atoms: _78  and  _79
REMARK   35  A    between atoms: _84  and  _85
REMARK   36  A    between atoms: _87  and  _89
REMARK   37  A    between atoms: _89  and  _90
REMARK   38  A    between atoms: _93  and  _95
REMARK   39  A    between atoms: _95  and  _96
REMARK   40  A    between atoms: _95  and  _98
REMARK   41  A    between atoms: _98  and  _99
REMARK   42  A    between atoms: _99  and  _100
REMARK   43  A    between atoms: _100  and  _101
REMARK   44  A    between atoms: _101  and  _102
REMARK   45  A    between atoms: _106  and  _108
REMARK   46  A    between atoms: _108  and  _109
REMARK   47  A    between atoms: _108  and  _111
REMARK   48  A    between atoms: _111  and  _112
REMARK   49  A    between atoms: _115  and  _117
REMARK   50  A    between atoms: _117  and  _118
REMARK   51  A    between atoms: _117  and  _120
REMARK   52  A    between atoms: _120  and  _121
REMARK   53  A    between atoms: _123  and  _125
REMARK   54  A    between atoms: _125  and  _126
REMARK   55  A    between atoms: _125  and  _128
REMARK   56  A    between atoms: _128  and  _129
REMARK   57  A    between atoms: _129  and  _239
REMARK   58  A    between atoms: _130  and  _132
REMARK   59  A    between atoms: _132  and  _133
REMARK   60  A    between atoms: _132  and  _135
REMARK   61  A    between atoms: _135  and  _136
REMARK   62  A    between atoms: _136  and  _137
REMARK   63  A    between atoms: _142  and  _144
REMARK   64  A    between atoms: _144  and  _145
REMARK   65  A    between atoms: _147  and  _149
REMARK   66  A    between atoms: _149  and  _150
REMARK   67  A    between atoms: _149  and  _152
REMARK   68  A    between atoms: _152  and  _153
REMARK   69  A    between atoms: _156  and  _158
REMARK   70  A    between atoms: _158  and  _159
REMARK   71  A    between atoms: _158  and  _161
REMARK   72  A    between atoms: _161  and  _162
REMARK   73  A    between atoms: _164  and  _166
REMARK   74  A    between atoms: _166  and  _167
REMARK   75  A    between atoms: _169  and  _171
REMARK   76  A    between atoms: _171  and  _172
REMARK   77  A    between atoms: _174  and  _176
REMARK   78  A    between atoms: _176  and  _177
REMARK   79  A    between atoms: _176  and  _179
REMARK   80  A    between atoms: _179  and  _180
REMARK   81  A    between atoms: _183  and  _185
REMARK   82  A    between atoms: _185  and  _186
REMARK   83  A    between atoms: _185  and  _188
REMARK   84  A    between atoms: _191  and  _193
REMARK   85  A    between atoms: _193  and  _194
REMARK   86  A    between atoms: _193  and  _196
REMARK   87  A    between atoms: _196  and  _197
REMARK   88  A    between atoms: _199  and  _201
REMARK   89  A    between atoms: _201  and  _202
REMARK   90  A    between atoms: _201  and  _204
REMARK   91  A    between atoms: _204  and  _205
REMARK   92  A    between atoms: _215  and  _217
REMARK   93  A    between atoms: _217  and  _218
REMARK   94  A    between atoms: _220  and  _222
REMARK   95  A    between atoms: _222  and  _223
REMARK   96  A    between atoms: _222  and  _225
REMARK   97  A    between atoms: _225  and  _226
REMARK   98  A    between atoms: _228  and  _230
REMARK   99  A    between atoms: _230  and  _231
REMARK  100  A    between atoms: _233  and  _235
REMARK  101  A    between atoms: _235  and  _236
REMARK  102  A    between atoms: _235  and  _238
REMARK  103  A    between atoms: _238  and  _239
REMARK  104  A    between atoms: _240  and  _242
REMARK  105  A    between atoms: _242  and  _243
REMARK  106  A    between atoms: _246  and  _248
REMARK  107  A    between atoms: _248  and  _249
REMARK  108  A    between atoms: _248  and  _251
REMARK  109  A    between atoms: _251  and  _252
REMARK  110  A    between atoms: _252  and  _253
REMARK  111  A    between atoms: _258  and  _260
REMARK  112  A    between atoms: _260  and  _261
REMARK  113  A    between atoms: _260  and  _263
REMARK  114  A    between atoms: _263  and  _264
REMARK  115  A    between atoms: _264  and  _265
REMARK  116  A    between atoms: _265  and  _266
REMARK  117  A    between atoms: _266  and  _267
REMARK  118  A    between atoms: _272  and  _273
REMARK  119  A    between atoms: _278  and  _280
REMARK  120  A    between atoms: _280  and  _281
REMARK  121  A    between atoms: _283  and  _285
REMARK  122  A    between atoms: _285  and  _286
REMARK  123  A    between atoms: _285  and  _288
REMARK  124  A    between atoms: _291  and  _293
REMARK  125  A    between atoms: _293  and  _294
REMARK  126  A    between atoms: _293  and  _296
REMARK  127  A    between atoms: _296  and  _297
REMARK  128  A    between atoms: _302  and  _303
REMARK                            x       y       z     vdW  Elec       q    Type
REMARK                         _______ _______ _______ _____ _____    ______ ____
ROOT
ATOM      1  CA  ASP A   1      37.677   8.500  27.308  0.00  0.00    +0.144 C 
ENDROOT
BRANCH   1   2
ATOM      2  N   ASP A   1      36.611   8.789  26.313  0.00  0.00    -0.239 NA
ATOM      3  H   ASP A   1      36.490   8.186  25.474  0.00  0.00    +0.142 HD
ENDBRANCH   1   2
BRANCH   1   4
ATOM      4  C   ASP A   1      38.938   9.366  27.064  0.00  0.00    +0.225 C 
ATOM      5  O   ASP A   1      39.933   8.880  26.564  0.00  0.00    -0.287 OA
ENDBRANCH   1   4
BRANCH   1   6
ATOM      6  CB  ASP A   1      38.019   7.049  27.211  0.00  0.00    +0.139 C 
BRANCH   6   7
ATOM      7  CG  ASP A   1      38.921   6.509  28.381  0.00  0.00    +0.367 C 
ATOM      8  OD2 ASP A   1      39.069   7.202  29.374  0.00  0.00    -0.246 OA
ATOM      9  OD1 ASP A   1      39.407   5.399  28.204  0.00  0.00    -0.246 OA
ENDBRANCH   6   7
ENDBRANCH   1   6
TORSDOF 4
REMARK  Name = ../refined-set-2016/1c5q/1c5q_pocket.pdb
REMARK  128 active torsions:
REMARK  status: ('A' for Active; 'I' for Inactive)
REMARK    1  A    between atoms: _1  and  _3
REMARK    2  A    between atoms: _3  and  _4
REMARK    3  A    between atoms: _3  and  _6
REMARK    4  A    between atoms: _9  and  _11
REMARK    5  A    between atoms: _11  and  _12
REMARK    6  A    between atoms: _11  and  _14
REMARK    7  A    between atoms: _16  and  _18
REMARK    8  A    between atoms: _18  and  _19
REMARK    9  A    between atoms: _18  and  _21
REMARK   10  A    between atoms: _21  and  _22
REMARK   11  A    between atoms: _27  and  _29
REMARK   12  A    between atoms: _29  and  _30
REMARK   13  A    between atoms: _29  and  _32
REMARK   14  A    between atoms: _32  and  _33
REMARK   15  A    between atoms: _36  and  _38
REMARK   16  A    between atoms: _38  and  _39
REMARK   17  A    between atoms: _38  and  _41
REMARK   18  A    between atoms: _41  and  _42
REMARK   19  A    between atoms: _45  and  _47
REMARK   20  A    between atoms: _47  and  _48
REMARK   21  A    between atoms: _47  and  _50
REMARK   22  A    between atoms: _50  and  _51
REMARK   23  A    between atoms: _54  and  _56
REMARK   24  A    between atoms: _56  and  _57
REMARK   25  A    between atoms: _56  and  _59
REMARK   26  A    between atoms: _59  and  _60
REMARK   27  A    between atoms: _65  and  _67
REMARK   28  A    between atoms: _67  and  _68
REMARK   29  A    between atoms: _67  and  _70
REMARK   30  A    between atoms: _70  and  _71
REMARK   31  A    between atoms: _73  and  _75
REMARK   32  A    between atoms: _75  and  _76
REMARK   33  A    between atoms: _75  and  _78
REMARK   34  A    between atoms: _78  and  _79
REMARK   35  A    between atoms: _84  and  _85
REMARK   36  A    between atoms: _87  and  _89
REMARK   37  A    between atoms: _89  and  _90
REMARK   38  A    between atoms: _93  and  _95
REMARK   39  A    between atoms: _95  and  _96
REMARK   40  A    between atoms: _95  and  _98
REMARK   41  A    between atoms: _98  and  _99
REMARK   42  A    between atoms: _99  and  _100
REMARK   43  A    between atoms: _100  and  _101
REMARK   44  A    between atoms: _101  and  _102
REMARK   45  A    between atoms: _106  and  _108
REMARK   46  A    between atoms: _108  and  _109
REMARK   47  A    between atoms: _108  and  _111
REMARK   48  A    between atoms: _111  and  _112
REMARK   49  A    between atoms: _115  and  _117
REMARK   50  A    between atoms: _117  and  _118
REMARK   51  A    between atoms: _117  and  _120
REMARK   52  A    between atoms: _120  and  _121
REMARK   53  A    between atoms: _123  and  _125
REMARK   54  A    between atoms: _125  and  _126
REMARK   55  A    between atoms: _125  and  _128
REMARK   56  A    between atoms: _128  and  _129
REMARK   57  A    between atoms: _129  and  _239
REMARK   58  A    between atoms: _130  and  _132
REMARK   59  A    between atoms: _132  and  _133
REMARK   60  A    between atoms: _132  and  _135
REMARK   61  A    between atoms: _135  and  _136
REMARK   62  A    between atoms: _136  and  _137
REMARK   63  A    between atoms: _142  and  _144
REMARK   64  A    between atoms: _144  and  _145
REMARK   65  A    between atoms: _147  and  _149
REMARK   66  A    between atoms: _149  and  _150
REMARK   67  A    between atoms: _149  and  _152
REMARK   68  A    between atoms: _152  and  _153
REMARK   69  A    between atoms: _156  and  _158
REMARK   70  A    between atoms: _158  and  _159
REMARK   71  A    between atoms: _158  and  _161
REMARK   72  A    between atoms: _161  and  _162
REMARK   73  A    between atoms: _164  and  _166
REMARK   74  A    between atoms: _166  and  _167
REMARK   75  A    between atoms: _169  and  _171
REMARK   76  A    between atoms: _171  and  _172
REMARK   77  A    between atoms: _174  and  _176
REMARK   78  A    between atoms: _176  and  _177
REMARK   79  A    between atoms: _176  and  _179
REMARK   80  A    between atoms: _179  and  _180
REMARK   81  A    between atoms: _183  and  _185
REMARK   82  A    between atoms: _185  and  _186
REMARK   83  A    between atoms: _185  and  _188
REMARK   84  A    between atoms: _191  and  _193
REMARK   85  A    between atoms: _193  and  _194
REMARK   86  A    between atoms: _193  and  _196
REMARK   87  A    between atoms: _196  and  _197
REMARK   88  A    between atoms: _199  and  _201
REMARK   89  A    between atoms: _201  and  _202
REMARK   90  A    between atoms: _201  and  _204
REMARK   91  A    between atoms: _204  and  _205
REMARK   92  A    between atoms: _215  and  _217
REMARK   93  A    between atoms: _217  and  _218
REMARK   94  A    between atoms: _220  and  _222
REMARK   95  A    between atoms: _222  and  _223
REMARK   96  A    between atoms: _222  and  _225
REMARK   97  A    between atoms: _225  and  _226
REMARK   98  A    between atoms: _228  and  _230
REMARK   99  A    between atoms: _230  and  _231
REMARK  100  A    between atoms: _233  and  _235
REMARK  101  A    between atoms: _235  and  _236
REMARK  102  A    between atoms: _235  and  _238
REMARK  103  A    between atoms: _238  and  _239
REMARK  104  A    between atoms: _240  and  _242
REMARK  105  A    between atoms: _242  and  _243
REMARK  106  A    between atoms: _246  and  _248
REMARK  107  A    between atoms: _248  and  _249
REMARK  108  A    between atoms: _248  and  _251
REMARK  109  A    between atoms: _251  and  _252
REMARK  110  A    between atoms: _252  and  _253
REMARK  111  A    between atoms: _258  and  _260
REMARK  112  A    between atoms: _260  and  _261
REMARK  113  A    between atoms: _260  and  _263
REMARK  114  A    between atoms: _263  and  _264
REMARK  115  A    between atoms: _264  and  _265
REMARK  116  A    between atoms: _265  and  _266
REMARK  117  A    between atoms: _266  and  _267
REMARK  118  A    between atoms: _272  and  _273
REMARK  119  A    between atoms: _278  and  _280
REMARK  120  A    between atoms: _280  and  _281
REMARK  121  A    between atoms: _283  and  _285
REMARK  122  A    between atoms: _285  and  _286
REMARK  123  A    between atoms: _285  and  _288
REMARK  124  A    between atoms: _291  and  _293
REMARK  125  A    between atoms: _293  and  _294
REMARK  126  A    between atoms: _293  and  _296
REMARK  127  A    between atoms: _296  and  _297
REMARK  128  A    between atoms: _302  and  _303
REMARK                            x       y       z     vdW  Elec       q    Type
REMARK                         _______ _______ _______ _____ _____    ______ ____
ROOT
ATOM      1  CA  ILE A   1      52.047   2.734  20.506  0.00  0.00    +0.133 C 
ENDROOT
BRANCH   1   2
ATOM      2  N   ILE A   1      52.711   2.805  19.174  0.00  0.00    -0.239 NA
ATOM      3  H   ILE A   1      53.152   1.940  18.802  0.00  0.00    +0.142 HD
ENDBRANCH   1   2
BRANCH   1   4
ATOM      4  C   ILE A   1      53.211   2.445  21.505  0.00  0.00    +0.224 C 
ATOM      5  O   ILE A   1      54.056   1.608  21.224  0.00  0.00    -0.287 OA
ENDBRANCH   1   4
BRANCH   1   6
ATOM      6  CB  ILE A   1      51.036   1.589  20.435  0.00  0.00    +0.023 C 
ATOM      7  CG2 ILE A   1      50.251   1.540  21.782  0.00  0.00    +0.002 C 
BRANCH   6   8
ATOM      8  CG1 ILE A   1      50.101   1.837  19.194  0.00  0.00    +0.002 C 
ATOM      9  CD1 ILE A   1      49.109   0.701  18.993  0.00  0.00    +0.000 C 
ENDBRANCH   6   8
ENDBRANCH   1   6
TORSDOF 4
REMARK  Name = ../refined-set-2016/1c5q/1c5q_pocket.pdb
REMARK  128 active torsions:
REMARK  status: ('A' for Active; 'I' for Inactive)
REMARK    1  A    between atoms: _1  and  _3
REMARK    2  A    between atoms: _3  and  _4
REMARK    3  A    between atoms: _3  and  _6
REMARK    4  A    between atoms: _9  and  _11
REMARK    5  A    between atoms: _11  and  _12
REMARK    6  A    between atoms: _11  and  _14
REMARK    7  A    between atoms: _16  and  _18
REMARK    8  A    between atoms: _18  and  _19
REMARK    9  A    between atoms: _18  and  _21
REMARK   10  A    between atoms: _21  and  _22
REMARK   11  A    between atoms: _27  and  _29
REMARK   12  A    between atoms: _29  and  _30
REMARK   13  A    between atoms: _29  and  _32
REMARK   14  A    between atoms: _32  and  _33
REMARK   15  A    between atoms: _36  and  _38
REMARK   16  A    between atoms: _38  and  _39
REMARK   17  A    between atoms: _38  and  _41
REMARK   18  A    between atoms: _41  and  _42
REMARK   19  A    between atoms: _45  and  _47
REMARK   20  A    between atoms: _47  and  _48
REMARK   21  A    between atoms: _47  and  _50
REMARK   22  A    between atoms: _50  and  _51
REMARK   23  A    between atoms: _54  and  _56
REMARK   24  A    between atoms: _56  and  _57
REMARK   25  A    between atoms: _56  and  _59
REMARK   26  A    between atoms: _59  and  _60
REMARK   27  A    between atoms: _65  and  _67
REMARK   28  A    between atoms: _67  and  _68
REMARK   29  A    between atoms: _67  and  _70
REMARK   30  A    between atoms: _70  and  _71
REMARK   31  A    between atoms: _73  and  _75
REMARK   32  A    between atoms: _75  and  _76
REMARK   33  A    between atoms: _75  and  _78
REMARK   34  A    between atoms: _78  and  _79
REMARK   35  A    between atoms: _84  and  _85
REMARK   36  A    between atoms: _87  and  _89
REMARK   37  A    between atoms: _89  and  _90
REMARK   38  A    between atoms: _93  and  _95
REMARK   39  A    between atoms: _95  and  _96
REMARK   40  A    between atoms: _95  and  _98
REMARK   41  A    between atoms: _98  and  _99
REMARK   42  A    between atoms: _99  and  _100
REMARK   43  A    between atoms: _100  and  _101
REMARK   44  A    between atoms: _101  and  _102
REMARK   45  A    between atoms: _106  and  _108
REMARK   46  A    between atoms: _108  and  _109
REMARK   47  A    between atoms: _108  and  _111
REMARK   48  A    between atoms: _111  and  _112
REMARK   49  A    between atoms: _115  and  _117
REMARK   50  A    between atoms: _117  and  _118
REMARK   51  A    between atoms: _117  and  _120
REMARK   52  A    between atoms: _120  and  _121
REMARK   53  A    between atoms: _123  and  _125
REMARK   54  A    between atoms: _125  and  _126
REMARK   55  A    between atoms: _125  and  _128
REMARK   56  A    between atoms: _128  and  _129
REMARK   57  A    between atoms: _129  and  _239
REMARK   58  A    between atoms: _130  and  _132
REMARK   59  A    between atoms: _132  and  _133
REMARK   60  A    between atoms: _132  and  _135
REMARK   61  A    between atoms: _135  and  _136
REMARK   62  A    between atoms: _136  and  _137
REMARK   63  A    between atoms: _142  and  _144
REMARK   64  A    between atoms: _144  and  _145
REMARK   65  A    between atoms: _147  and  _149
REMARK   66  A    between atoms: _149  and  _150
REMARK   67  A    between atoms: _149  and  _152
REMARK   68  A    between atoms: _152  and  _153
REMARK   69  A    between atoms: _156  and  _158
REMARK   70  A    between atoms: _158  and  _159
REMARK   71  A    between atoms: _158  and  _161
REMARK   72  A    between atoms: _161  and  _162
REMARK   73  A    between atoms: _164  and  _166
REMARK   74  A    between atoms: _166  and  _167
REMARK   75  A    between atoms: _169  and  _171
REMARK   76  A    between atoms: _171  and  _172
REMARK   77  A    between atoms: _174  and  _176
REMARK   78  A    between atoms: _176  and  _177
REMARK   79  A    between atoms: _176  and  _179
REMARK   80  A    between atoms: _179  and  _180
REMARK   81  A    between atoms: _183  and  _185
REMARK   82  A    between atoms: _185  and  _186
REMARK   83  A    between atoms: _185  and  _188
REMARK   84  A    between atoms: _191  and  _193
REMARK   85  A    between atoms: _193  and  _194
REMARK   86  A    between atoms: _193  and  _196
REMARK   87  A    between atoms: _196  and  _197
REMARK   88  A    between atoms: _199  and  _201
REMARK   89  A    between atoms: _201  and  _202
REMARK   90  A    between atoms: _201  and  _204
REMARK   91  A    between atoms: _204  and  _205
REMARK   92  A    between atoms: _215  and  _217
REMARK   93  A    between atoms: _217  and  _218
REMARK   94  A    between atoms: _220  and  _222
REMARK   95  A    between atoms: _222  and  _223
REMARK   96  A    between atoms: _222  and  _225
REMARK   97  A    between atoms: _225  and  _226
REMARK   98  A    between atoms: _228  and  _230
REMARK   99  A    between atoms: _230  and  _231
REMARK  100  A    between atoms: _233  and  _235
REMARK  101  A    between atoms: _235  and  _236
REMARK  102  A    between atoms: _235  and  _238
REMARK  103  A    between atoms: _238  and  _239
REMARK  104  A    between atoms: _240  and  _242
REMARK  105  A    between atoms: _242  and  _243
REMARK  106  A    between atoms: _246  and  _248
REMARK  107  A    between atoms: _248  and  _249
REMARK  108  A    between atoms: _248  and  _251
REMARK  109  A    between atoms: _251  and  _252
REMARK  110  A    between atoms: _252  and  _253
REMARK  111  A    between atoms: _258  and  _260
REMARK  112  A    between atoms: _260  and  _261
REMARK  113  A    between atoms: _260  and  _263
REMARK  114  A    between atoms: _263  and  _264
REMARK  115  A    between atoms: _264  and  _265
REMARK  116  A    between atoms: _265  and  _266
REMARK  117  A    between atoms: _266  and  _267
REMARK  118  A    between atoms: _272  and  _273
REMARK  119  A    between atoms: _278  and  _280
REMARK  120  A    between atoms: _280  and  _281
REMARK  121  A    between atoms: _283  and  _285
REMARK  122  A    between atoms: _285  and  _286
REMARK  123  A    between atoms: _285  and  _288
REMARK  124  A    between atoms: _291  and  _293
REMARK  125  A    between atoms: _293  and  _294
REMARK  126  A    between atoms: _293  and  _296
REMARK  127  A    between atoms: _296  and  _297
REMARK  128  A    between atoms: _302  and  _303
REMARK                            x       y       z     vdW  Elec       q    Type
REMARK                         _______ _______ _______ _____ _____    ______ ____
ROOT
ATOM      1  CB  ASN A   1      50.856  -5.999  31.726  0.00  0.00    +0.110 C 
ENDROOT
BRANCH   1   2
ATOM      2  CG  ASN A   1      51.034  -7.480  32.010  0.00  0.00    +0.221 C 
ATOM      3  ND2 ASN A   1      49.971  -8.168  32.275  0.00  0.00    -0.329 N 
ATOM      4 HD21 ASN A   1      50.048  -9.184  32.483  0.00  0.00    +0.145 HD
ATOM      5 HD22 ASN A   1      49.040  -7.705  32.280  0.00  0.00    +0.145 HD
ATOM      6  OD1 ASN A   1      52.113  -8.041  32.009  0.00  0.00    -0.275 OA
ENDBRANCH   1   2
BRANCH   1   7
ATOM      7  CA  ASN A   1      52.146  -5.336  31.276  0.00  0.00    +0.142 C 
BRANCH   7   8
ATOM      8  N   ASN A   1      51.884  -3.878  31.238  0.00  0.00    -0.239 NA
ATOM      9  H   ASN A   1      50.965  -3.516  31.564  0.00  0.00    +0.142 HD
ENDBRANCH   7   8
BRANCH   7  10
ATOM     10  C   ASN A   1      52.616  -5.887  29.919  0.00  0.00    +0.225 C 
ATOM     11  O   ASN A   1      52.126  -5.448  28.876  0.00  0.00    -0.287 OA
ENDBRANCH   7  10
ENDBRANCH   1   7
TORSDOF 4
REMARK  Name = ../refined-set-2016/1c5q/1c5q_pocket.pdb
REMARK  128 active torsions:
REMARK  status: ('A' for Active; 'I' for Inactive)
REMARK    1  A    between atoms: _1  and  _3
REMARK    2  A    between atoms: _3  and  _4
REMARK    3  A    between atoms: _3  and  _6
REMARK    4  A    between atoms: _9  and  _11
REMARK    5  A    between atoms: _11  and  _12
REMARK    6  A    between atoms: _11  and  _14
REMARK    7  A    between atoms: _16  and  _18
REMARK    8  A    between atoms: _18  and  _19
REMARK    9  A    between atoms: _18  and  _21
REMARK   10  A    between atoms: _21  and  _22
REMARK   11  A    between atoms: _27  and  _29
REMARK   12  A    between atoms: _29  and  _30
REMARK   13  A    between atoms: _29  and  _32
REMARK   14  A    between atoms: _32  and  _33
REMARK   15  A    between atoms: _36  and  _38
REMARK   16  A    between atoms: _38  and  _39
REMARK   17  A    between atoms: _38  and  _41
REMARK   18  A    between atoms: _41  and  _42
REMARK   19  A    between atoms: _45  and  _47
REMARK   20  A    between atoms: _47  and  _48
REMARK   21  A    between atoms: _47  and  _50
REMARK   22  A    between atoms: _50  and  _51
REMARK   23  A    between atoms: _54  and  _56
REMARK   24  A    between atoms: _56  and  _57
REMARK   25  A    between atoms: _56  and  _59
REMARK   26  A    between atoms: _59  and  _60
REMARK   27  A    between atoms: _65  and  _67
REMARK   28  A    between atoms: _67  and  _68
REMARK   29  A    between atoms: _67  and  _70
REMARK   30  A    between atoms: _70  and  _71
REMARK   31  A    between atoms: _73  and  _75
REMARK   32  A    between atoms: _75  and  _76
REMARK   33  A    between atoms: _75  and  _78
REMARK   34  A    between atoms: _78  and  _79
REMARK   35  A    between atoms: _84  and  _85
REMARK   36  A    between atoms: _87  and  _89
REMARK   37  A    between atoms: _89  and  _90
REMARK   38  A    between atoms: _93  and  _95
REMARK   39  A    between atoms: _95  and  _96
REMARK   40  A    between atoms: _95  and  _98
REMARK   41  A    between atoms: _98  and  _99
REMARK   42  A    between atoms: _99  and  _100
REMARK   43  A    between atoms: _100  and  _101
REMARK   44  A    between atoms: _101  and  _102
REMARK   45  A    between atoms: _106  and  _108
REMARK   46  A    between atoms: _108  and  _109
REMARK   47  A    between atoms: _108  and  _111
REMARK   48  A    between atoms: _111  and  _112
REMARK   49  A    between atoms: _115  and  _117
REMARK   50  A    between atoms: _117  and  _118
REMARK   51  A    between atoms: _117  and  _120
REMARK   52  A    between atoms: _120  and  _121
REMARK   53  A    between atoms: _123  and  _125
REMARK   54  A    between atoms: _125  and  _126
REMARK   55  A    between atoms: _125  and  _128
REMARK   56  A    between atoms: _128  and  _129
REMARK   57  A    between atoms: _129  and  _239
REMARK   58  A    between atoms: _130  and  _132
REMARK   59  A    between atoms: _132  and  _133
REMARK   60  A    between atoms: _132  and  _135
REMARK   61  A    between atoms: _135  and  _136
REMARK   62  A    between atoms: _136  and  _137
REMARK   63  A    between atoms: _142  and  _144
REMARK   64  A    between atoms: _144  and  _145
REMARK   65  A    between atoms: _147  and  _149
REMARK   66  A    between atoms: _149  and  _150
REMARK   67  A    between atoms: _149  and  _152
REMARK   68  A    between atoms: _152  and  _153
REMARK   69  A    between atoms: _156  and  _158
REMARK   70  A    between atoms: _158  and  _159
REMARK   71  A    between atoms: _158  and  _161
REMARK   72  A    between atoms: _161  and  _162
REMARK   73  A    between atoms: _164  and  _166
REMARK   74  A    between atoms: _166  and  _167
REMARK   75  A    between atoms: _169  and  _171
REMARK   76  A    between atoms: _171  and  _172
REMARK   77  A    between atoms: _174  and  _176
REMARK   78  A    between atoms: _176  and  _177
REMARK   79  A    between atoms: _176  and  _179
REMARK   80  A    between atoms: _179  and  _180
REMARK   81  A    between atoms: _183  and  _185
REMARK   82  A    between atoms: _185  and  _186
REMARK   83  A    between atoms: _185  and  _188
REMARK   84  A    between atoms: _191  and  _193
REMARK   85  A    between atoms: _193  and  _194
REMARK   86  A    between atoms: _193  and  _196
REMARK   87  A    between atoms: _196  and  _197
REMARK   88  A    between atoms: _199  and  _201
REMARK   89  A    between atoms: _201  and  _202
REMARK   90  A    between atoms: _201  and  _204
REMARK   91  A    between atoms: _204  and  _205
REMARK   92  A    between atoms: _215  and  _217
REMARK   93  A    between atoms: _217  and  _218
REMARK   94  A    between atoms: _220  and  _222
REMARK   95  A    between atoms: _222  and  _223
REMARK   96  A    between atoms: _222  and  _225
REMARK   97  A    between atoms: _225  and  _226
REMARK   98  A    between atoms: _228  and  _230
REMARK   99  A    between atoms: _230  and  _231
REMARK  100  A    between atoms: _233  and  _235
REMARK  101  A    between atoms: _235  and  _236
REMARK  102  A    between atoms: _235  and  _238
REMARK  103  A    between atoms: _238  and  _239
REMARK  104  A    between atoms: _240  and  _242
REMARK  105  A    between atoms: _242  and  _243
REMARK  106  A    between atoms: _246  and  _248
REMARK  107  A    between atoms: _248  and  _249
REMARK  108  A    between atoms: _248  and  _251
REMARK  109  A    between atoms: _251  and  _252
REMARK  110  A    between atoms: _252  and  _253
REMARK  111  A    between atoms: _258  and  _260
REMARK  112  A    between atoms: _260  and  _261
REMARK  113  A    between atoms: _260  and  _263
REMARK  114  A    between atoms: _263  and  _264
REMARK  115  A    between atoms: _264  and  _265
REMARK  116  A    between atoms: _265  and  _266
REMARK  117  A    between atoms: _266  and  _267
REMARK  118  A    between atoms: _272  and  _273
REMARK  119  A    between atoms: _278  and  _280
REMARK  120  A    between atoms: _280  and  _281
REMARK  121  A    between atoms: _283  and  _285
REMARK  122  A    between atoms: _285  and  _286
REMARK  123  A    between atoms: _285  and  _288
REMARK  124  A    between atoms: _291  and  _293
REMARK  125  A    between atoms: _293  and  _294
REMARK  126  A    between atoms: _293  and  _296
REMARK  127  A    between atoms: _296  and  _297
REMARK  128  A    between atoms: _302  and  _303
REMARK                            x       y       z     vdW  Elec       q    Type
REMARK                         _______ _______ _______ _____ _____    ______ ____
ROOT
ATOM      1  CA  SER A   1      48.745 -11.650  27.872  0.00  0.00    +0.163 C 
ENDROOT
BRANCH   1   2
ATOM      2  N   SER A   1      50.223 -11.592  28.160  0.00  0.00    -0.237 NA
ATOM      3  H   SER A   1      50.869 -12.225  27.647  0.00  0.00    +0.142 HD
ENDBRANCH   1   2
BRANCH   1   4
ATOM      4  CB  SER A   1      48.096 -12.479  28.972  0.00  0.00    +0.227 C 
ATOM      5  OG  SER A   1      46.999 -12.240  29.445  0.00  0.00    -0.287 OA
ENDBRANCH   1   4
BRANCH   1   6
ATOM      6  C   SER A   1      48.519 -12.334  26.512  0.00  0.00    +0.162 C 
BRANCH   6   7
ATOM      7  O   SER A   1      49.409 -13.451  26.573  0.00  0.00    -0.380 OA
ATOM      8  H   SER A   1      50.337 -13.126  26.690  0.00  0.00    +0.211 HD
ENDBRANCH   6   7
ENDBRANCH   1   6
TORSDOF 4
REMARK  Name = ../refined-set-2016/1c5q/1c5q_pocket.pdb
REMARK  128 active torsions:
REMARK  status: ('A' for Active; 'I' for Inactive)
REMARK    1  A    between atoms: _1  and  _3
REMARK    2  A    between atoms: _3  and  _4
REMARK    3  A    between atoms: _3  and  _6
REMARK    4  A    between atoms: _9  and  _11
REMARK    5  A    between atoms: _11  and  _12
REMARK    6  A    between atoms: _11  and  _14
REMARK    7  A    between atoms: _16  and  _18
REMARK    8  A    between atoms: _18  and  _19
REMARK    9  A    between atoms: _18  and  _21
REMARK   10  A    between atoms: _21  and  _22
REMARK   11  A    between atoms: _27  and  _29
REMARK   12  A    between atoms: _29  and  _30
REMARK   13  A    between atoms: _29  and  _32
REMARK   14  A    between atoms: _32  and  _33
REMARK   15  A    between atoms: _36  and  _38
REMARK   16  A    between atoms: _38  and  _39
REMARK   17  A    between atoms: _38  and  _41
REMARK   18  A    between atoms: _41  and  _42
REMARK   19  A    between atoms: _45  and  _47
REMARK   20  A    between atoms: _47  and  _48
REMARK   21  A    between atoms: _47  and  _50
REMARK   22  A    between atoms: _50  and  _51
REMARK   23  A    between atoms: _54  and  _56
REMARK   24  A    between atoms: _56  and  _57
REMARK   25  A    between atoms: _56  and  _59
REMARK   26  A    between atoms: _59  and  _60
REMARK   27  A    between atoms: _65  and  _67
REMARK   28  A    between atoms: _67  and  _68
REMARK   29  A    between atoms: _67  and  _70
REMARK   30  A    between atoms: _70  and  _71
REMARK   31  A    between atoms: _73  and  _75
REMARK   32  A    between atoms: _75  and  _76
REMARK   33  A    between atoms: _75  and  _78
REMARK   34  A    between atoms: _78  and  _79
REMARK   35  A    between atoms: _84  and  _85
REMARK   36  A    between atoms: _87  and  _89
REMARK   37  A    between atoms: _89  and  _90
REMARK   38  A    between atoms: _93  and  _95
REMARK   39  A    between atoms: _95  and  _96
REMARK   40  A    between atoms: _95  and  _98
REMARK   41  A    between atoms: _98  and  _99
REMARK   42  A    between atoms: _99  and  _100
REMARK   43  A    between atoms: _100  and  _101
REMARK   44  A    between atoms: _101  and  _102
REMARK   45  A    between atoms: _106  and  _108
REMARK   46  A    between atoms: _108  and  _109
REMARK   47  A    between atoms: _108  and  _111
REMARK   48  A    between atoms: _111  and  _112
REMARK   49  A    between atoms: _115  and  _117
REMARK   50  A    between atoms: _117  and  _118
REMARK   51  A    between atoms: _117  and  _120
REMARK   52  A    between atoms: _120  and  _121
REMARK   53  A    between atoms: _123  and  _125
REMARK   54  A    between atoms: _125  and  _126
REMARK   55  A    between atoms: _125  and  _128
REMARK   56  A    between atoms: _128  and  _129
REMARK   57  A    between atoms: _129  and  _239
REMARK   58  A    between atoms: _130  and  _132
REMARK   59  A    between atoms: _132  and  _133
REMARK   60  A    between atoms: _132  and  _135
REMARK   61  A    between atoms: _135  and  _136
REMARK   62  A    between atoms: _136  and  _137
REMARK   63  A    between atoms: _142  and  _144
REMARK   64  A    between atoms: _144  and  _145
REMARK   65  A    between atoms: _147  and  _149
REMARK   66  A    between atoms: _149  and  _150
REMARK   67  A    between atoms: _149  and  _152
REMARK   68  A    between atoms: _152  and  _153
REMARK   69  A    between atoms: _156  and  _158
REMARK   70  A    between atoms: _158  and  _159
REMARK   71  A    between atoms: _158  and  _161
REMARK   72  A    between atoms: _161  and  _162
REMARK   73  A    between atoms: _164  and  _166
REMARK   74  A    between atoms: _166  and  _167
REMARK   75  A    between atoms: _169  and  _171
REMARK   76  A    between atoms: _171  and  _172
REMARK   77  A    between atoms: _174  and  _176
REMARK   78  A    between atoms: _176  and  _177
REMARK   79  A    between atoms: _176  and  _179
REMARK   80  A    between atoms: _179  and  _180
REMARK   81  A    between atoms: _183  and  _185
REMARK   82  A    between atoms: _185  and  _186
REMARK   83  A    between atoms: _185  and  _188
REMARK   84  A    between atoms: _191  and  _193
REMARK   85  A    between atoms: _193  and  _194
REMARK   86  A    between atoms: _193  and  _196
REMARK   87  A    between atoms: _196  and  _197
REMARK   88  A    between atoms: _199  and  _201
REMARK   89  A    between atoms: _201  and  _202
REMARK   90  A    between atoms: _201  and  _204
REMARK   91  A    between atoms: _204  and  _205
REMARK   92  A    between atoms: _215  and  _217
REMARK   93  A    between atoms: _217  and  _218
REMARK   94  A    between atoms: _220  and  _222
REMARK   95  A    between atoms: _222  and  _223
REMARK   96  A    between atoms: _222  and  _225
REMARK   97  A    between atoms: _225  and  _226
REMARK   98  A    between atoms: _228  and  _230
REMARK   99  A    between atoms: _230  and  _231
REMARK  100  A    between atoms: _233  and  _235
REMARK  101  A    between atoms: _235  and  _236
REMARK  102  A    between atoms: _235  and  _238
REMARK  103  A    between atoms: _238  and  _239
REMARK  104  A    between atoms: _240  and  _242
REMARK  105  A    between atoms: _242  and  _243
REMARK  106  A    between atoms: _246  and  _248
REMARK  107  A    between atoms: _248  and  _249
REMARK  108  A    between atoms: _248  and  _251
REMARK  109  A    between atoms: _251  and  _252
REMARK  110  A    between atoms: _252  and  _253
REMARK  111  A    between atoms: _258  and  _260
REMARK  112  A    between atoms: _260  and  _261
REMARK  113  A    between atoms: _260  and  _263
REMARK  114  A    between atoms: _263  and  _264
REMARK  115  A    between atoms: _264  and  _265
REMARK  116  A    between atoms: _265  and  _266
REMARK  117  A    between atoms: _266  and  _267
REMARK  118  A    between atoms: _272  and  _273
REMARK  119  A    between atoms: _278  and  _280
REMARK  120  A    between atoms: _280  and  _281
REMARK  121  A    between atoms: _283  and  _285
REMARK  122  A    between atoms: _285  and  _286
REMARK  123  A    between atoms: _285  and  _288
REMARK  124  A    between atoms: _291  and  _293
REMARK  125  A    between atoms: _293  and  _294
REMARK  126  A    between atoms: _293  and  _296
REMARK  127  A    between atoms: _296  and  _297
REMARK  128  A    between atoms: _302  and  _303
REMARK                            x       y       z     vdW  Elec       q    Type
REMARK                         _______ _______ _______ _____ _____    ______ ____
ROOT
ATOM      1  CG  TYR A   1      35.455  -5.186  20.610  0.00  0.00    -0.020 A 
ATOM      2  CD2 TYR A   1      35.556  -6.008  21.706  0.00  0.00    -0.001 A 
ATOM      3  CE2 TYR A   1      36.782  -6.381  22.178  0.00  0.00    +0.036 A 
ATOM      4  CZ  TYR A   1      37.935  -5.938  21.564  0.00  0.00    +0.134 A 
ATOM      5  CE1 TYR A   1      37.854  -5.110  20.448  0.00  0.00    +0.036 A 
ATOM      6  CD1 TYR A   1      36.606  -4.734  19.971  0.00  0.00    -0.001 A 
ENDROOT
BRANCH   4   7
ATOM      7  OH  TYR A   1      39.141  -6.323  22.121  0.00  0.00    -0.506 OA
ATOM      8  HH  TYR A   1      39.640  -5.519  22.412  0.00  0.00    +0.292 HD
ENDBRANCH   4   7
BRANCH   1   9
ATOM      9  CB  TYR A   1      34.060  -4.759  20.141  0.00  0.00    +0.051 C 
BRANCH   9  10
ATOM     10  CA  TYR A   1      33.243  -5.921  19.533  0.00  0.00    +0.137 C 
BRANCH  10  11
ATOM     11  N   TYR A   1      33.921  -6.393  18.289  0.00  0.00    -0.239 NA
ATOM     12  H   TYR A   1      33.958  -5.772  17.455  0.00  0.00    +0.142 HD
ENDBRANCH  10  11
BRANCH  10  13
ATOM     13  C   TYR A   1      31.830  -5.433  19.231  0.00  0.00    +0.224 C 
ATOM     14  O   TYR A   1      31.534  -4.256  19.390  0.00  0.00    -0.287 OA
ENDBRANCH  10  13
ENDBRANCH   9  10
ENDBRANCH   1   9
TORSDOF 5
REMARK  Name = ../refined-set-2016/1c5q/1c5q_pocket.pdb
REMARK  128 active torsions:
REMARK  status: ('A' for Active; 'I' for Inactive)
REMARK    1  A    between atoms: _1  and  _3
REMARK    2  A    between atoms: _3  and  _4
REMARK    3  A    between atoms: _3  and  _6
REMARK    4  A    between atoms: _9  and  _11
REMARK    5  A    between atoms: _11  and  _12
REMARK    6  A    between atoms: _11  and  _14
REMARK    7  A    between atoms: _16  and  _18
REMARK    8  A    between atoms: _18  and  _19
REMARK    9  A    between atoms: _18  and  _21
REMARK   10  A    between atoms: _21  and  _22
REMARK   11  A    between atoms: _27  and  _29
REMARK   12  A    between atoms: _29  and  _30
REMARK   13  A    between atoms: _29  and  _32
REMARK   14  A    between atoms: _32  and  _33
REMARK   15  A    between atoms: _36  and  _38
REMARK   16  A    between atoms: _38  and  _39
REMARK   17  A    between atoms: _38  and  _41
REMARK   18  A    between atoms: _41  and  _42
REMARK   19  A    between atoms: _45  and  _47
REMARK   20  A    between atoms: _47  and  _48
REMARK   21  A    between atoms: _47  and  _50
REMARK   22  A    between atoms: _50  and  _51
REMARK   23  A    between atoms: _54  and  _56
REMARK   24  A    between atoms: _56  and  _57
REMARK   25  A    between atoms: _56  and  _59
REMARK   26  A    between atoms: _59  and  _60
REMARK   27  A    between atoms: _65  and  _67
REMARK   28  A    between atoms: _67  and  _68
REMARK   29  A    between atoms: _67  and  _70
REMARK   30  A    between atoms: _70  and  _71
REMARK   31  A    between atoms: _73  and  _75
REMARK   32  A    between atoms: _75  and  _76
REMARK   33  A    between atoms: _75  and  _78
REMARK   34  A    between atoms: _78  and  _79
REMARK   35  A    between atoms: _84  and  _85
REMARK   36  A    between atoms: _87  and  _89
REMARK   37  A    between atoms: _89  and  _90
REMARK   38  A    between atoms: _93  and  _95
REMARK   39  A    between atoms: _95  and  _96
REMARK   40  A    between atoms: _95  and  _98
REMARK   41  A    between atoms: _98  and  _99
REMARK   42  A    between atoms: _99  and  _100
REMARK   43  A    between atoms: _100  and  _101
REMARK   44  A    between atoms: _101  and  _102
REMARK   45  A    between atoms: _106  and  _108
REMARK   46  A    between atoms: _108  and  _109
REMARK   47  A    between atoms: _108  and  _111
REMARK   48  A    between atoms: _111  and  _112
REMARK   49  A    between atoms: _115  and  _117
REMARK   50  A    between atoms: _117  and  _118
REMARK   51  A    between atoms: _117  and  _120
REMARK   52  A    between atoms: _120  and  _121
REMARK   53  A    between atoms: _123  and  _125
REMARK   54  A    between atoms: _125  and  _126
REMARK   55  A    between atoms: _125  and  _128
REMARK   56  A    between atoms: _128  and  _129
REMARK   57  A    between atoms: _129  and  _239
REMARK   58  A    between atoms: _130  and  _132
REMARK   59  A    between atoms: _132  and  _133
REMARK   60  A    between atoms: _132  and  _135
REMARK   61  A    between atoms: _135  and  _136
REMARK   62  A    between atoms: _136  and  _137
REMARK   63  A    between atoms: _142  and  _144
REMARK   64  A    between atoms: _144  and  _145
REMARK   65  A    between atoms: _147  and  _149
REMARK   66  A    between atoms: _149  and  _150
REMARK   67  A    between atoms: _149  and  _152
REMARK   68  A    between atoms: _152  and  _153
REMARK   69  A    between atoms: _156  and  _158
REMARK   70  A    between atoms: _158  and  _159
REMARK   71  A    between atoms: _158  and  _161
REMARK   72  A    between atoms: _161  and  _162
REMARK   73  A    between atoms: _164  and  _166
REMARK   74  A    between atoms: _166  and  _167
REMARK   75  A    between atoms: _169  and  _171
REMARK   76  A    between atoms: _171  and  _172
REMARK   77  A    between atoms: _174  and  _176
REMARK   78  A    between atoms: _176  and  _177
REMARK   79  A    between atoms: _176  and  _179
REMARK   80  A    between atoms: _179  and  _180
REMARK   81  A    between atoms: _183  and  _185
REMARK   82  A    between atoms: _185  and  _186
REMARK   83  A    between atoms: _185  and  _188
REMARK   84  A    between atoms: _191  and  _193
REMARK   85  A    between atoms: _193  and  _194
REMARK   86  A    between atoms: _193  and  _196
REMARK   87  A    between atoms: _196  and  _197
REMARK   88  A    between atoms: _199  and  _201
REMARK   89  A    between atoms: _201  and  _202
REMARK   90  A    between atoms: _201  and  _204
REMARK   91  A    between atoms: _204  and  _205
REMARK   92  A    between atoms: _215  and  _217
REMARK   93  A    between atoms: _217  and  _218
REMARK   94  A    between atoms: _220  and  _222
REMARK   95  A    between atoms: _222  and  _223
REMARK   96  A    between atoms: _222  and  _225
REMARK   97  A    between atoms: _225  and  _226
REMARK   98  A    between atoms: _228  and  _230
REMARK   99  A    between atoms: _230  and  _231
REMARK  100  A    between atoms: _233  and  _235
REMARK  101  A    between atoms: _235  and  _236
REMARK  102  A    between atoms: _235  and  _238
REMARK  103  A    between atoms: _238  and  _239
REMARK  104  A    between atoms: _240  and  _242
REMARK  105  A    between atoms: _242  and  _243
REMARK  106  A    between atoms: _246  and  _248
REMARK  107  A    between atoms: _248  and  _249
REMARK  108  A    between atoms: _248  and  _251
REMARK  109  A    between atoms: _251  and  _252
REMARK  110  A    between atoms: _252  and  _253
REMARK  111  A    between atoms: _258  and  _260
REMARK  112  A    between atoms: _260  and  _261
REMARK  113  A    between atoms: _260  and  _263
REMARK  114  A    between atoms: _263  and  _264
REMARK  115  A    between atoms: _264  and  _265
REMARK  116  A    between atoms: _265  and  _266
REMARK  117  A    between atoms: _266  and  _267
REMARK  118  A    between atoms: _272  and  _273
REMARK  119  A    between atoms: _278  and  _280
REMARK  120  A    between atoms: _280  and  _281
REMARK  121  A    between atoms: _283  and  _285
REMARK  122  A    between atoms: _285  and  _286
REMARK  123  A    between atoms: _285  and  _288
REMARK  124  A    between atoms: _291  and  _293
REMARK  125  A    between atoms: _293  and  _294
REMARK  126  A    between atoms: _293  and  _296
REMARK  127  A    between atoms: _296  and  _297
REMARK  128  A    between atoms: _302  and  _303
REMARK                            x       y       z     vdW  Elec       q    Type
REMARK                         _______ _______ _______ _____ _____    ______ ____
ROOT
ATOM      1  CA  ALA A   1      44.414  -0.965  15.953  0.00  0.00    +0.133 C 
ATOM      2  CB  ALA A   1      45.233   0.292  16.353  0.00  0.00    +0.027 C 
ENDROOT
BRANCH   1   3
ATOM      3  N   ALA A   1      43.056  -0.941  16.582  0.00  0.00    -0.239 NA
ATOM      4  H   ALA A   1      42.919  -1.375  17.517  0.00  0.00    +0.142 HD
ENDBRANCH   1   3
BRANCH   1   5
ATOM      5  C   ALA A   1      45.045  -2.223  16.507  0.00  0.00    +0.224 C 
ATOM      6  O   ALA A   1      44.789  -2.574  17.649  0.00  0.00    -0.287 OA
ENDBRANCH   1   5
TORSDOF 2
REMARK  Name = ../refined-set-2016/1c5q/1c5q_pocket.pdb
REMARK  128 active torsions:
REMARK  status: ('A' for Active; 'I' for Inactive)
REMARK    1  A    between atoms: _1  and  _3
REMARK    2  A    between atoms: _3  and  _4
REMARK    3  A    between atoms: _3  and  _6
REMARK    4  A    between atoms: _9  and  _11
REMARK    5  A    between atoms: _11  and  _12
REMARK    6  A    between atoms: _11  and  _14
REMARK    7  A    between atoms: _16  and  _18
REMARK    8  A    between atoms: _18  and  _19
REMARK    9  A    between atoms: _18  and  _21
REMARK   10  A    between atoms: _21  and  _22
REMARK   11  A    between atoms: _27  and  _29
REMARK   12  A    between atoms: _29  and  _30
REMARK   13  A    between atoms: _29  and  _32
REMARK   14  A    between atoms: _32  and  _33
REMARK   15  A    between atoms: _36  and  _38
REMARK   16  A    between atoms: _38  and  _39
REMARK   17  A    between atoms: _38  and  _41
REMARK   18  A    between atoms: _41  and  _42
REMARK   19  A    between atoms: _45  and  _47
REMARK   20  A    between atoms: _47  and  _48
REMARK   21  A    between atoms: _47  and  _50
REMARK   22  A    between atoms: _50  and  _51
REMARK   23  A    between atoms: _54  and  _56
REMARK   24  A    between atoms: _56  and  _57
REMARK   25  A    between atoms: _56  and  _59
REMARK   26  A    between atoms: _59  and  _60
REMARK   27  A    between atoms: _65  and  _67
REMARK   28  A    between atoms: _67  and  _68
REMARK   29  A    between atoms: _67  and  _70
REMARK   30  A    between atoms: _70  and  _71
REMARK   31  A    between atoms: _73  and  _75
REMARK   32  A    between atoms: _75  and  _76
REMARK   33  A    between atoms: _75  and  _78
REMARK   34  A    between atoms: _78  and  _79
REMARK   35  A    between atoms: _84  and  _85
REMARK   36  A    between atoms: _87  and  _89
REMARK   37  A    between atoms: _89  and  _90
REMARK   38  A    between atoms: _93  and  _95
REMARK   39  A    between atoms: _95  and  _96
REMARK   40  A    between atoms: _95  and  _98
REMARK   41  A    between atoms: _98  and  _99
REMARK   42  A    between atoms: _99  and  _100
REMARK   43  A    between atoms: _100  and  _101
REMARK   44  A    between atoms: _101  and  _102
REMARK   45  A    between atoms: _106  and  _108
REMARK   46  A    between atoms: _108  and  _109
REMARK   47  A    between atoms: _108  and  _111
REMARK   48  A    between atoms: _111  and  _112
REMARK   49  A    between atoms: _115  and  _117
REMARK   50  A    between atoms: _117  and  _118
REMARK   51  A    between atoms: _117  and  _120
REMARK   52  A    between atoms: _120  and  _121
REMARK   53  A    between atoms: _123  and  _125
REMARK   54  A    between atoms: _125  and  _126
REMARK   55  A    between atoms: _125  and  _128
REMARK   56  A    between atoms: _128  and  _129
REMARK   57  A    between atoms: _129  and  _239
REMARK   58  A    between atoms: _130  and  _132
REMARK   59  A    between atoms: _132  and  _133
REMARK   60  A    between atoms: _132  and  _135
REMARK   61  A    between atoms: _135  and  _136
REMARK   62  A    between atoms: _136  and  _137
REMARK   63  A    between atoms: _142  and  _144
REMARK   64  A    between atoms: _144  and  _145
REMARK   65  A    between atoms: _147  and  _149
REMARK   66  A    between atoms: _149  and  _150
REMARK   67  A    between atoms: _149  and  _152
REMARK   68  A    between atoms: _152  and  _153
REMARK   69  A    between atoms: _156  and  _158
REMARK   70  A    between atoms: _158  and  _159
REMARK   71  A    between atoms: _158  and  _161
REMARK   72  A    between atoms: _161  and  _162
REMARK   73  A    between atoms: _164  and  _166
REMARK   74  A    between atoms: _166  and  _167
REMARK   75  A    between atoms: _169  and  _171
REMARK   76  A    between atoms: _171  and  _172
REMARK   77  A    between atoms: _174  and  _176
REMARK   78  A    between atoms: _176  and  _177
REMARK   79  A    between atoms: _176  and  _179
REMARK   80  A    between atoms: _179  and  _180
REMARK   81  A    between atoms: _183  and  _185
REMARK   82  A    between atoms: _185  and  _186
REMARK   83  A    between atoms: _185  and  _188
REMARK   84  A    between atoms: _191  and  _193
REMARK   85  A    between atoms: _193  and  _194
REMARK   86  A    between atoms: _193  and  _196
REMARK   87  A    between atoms: _196  and  _197
REMARK   88  A    between atoms: _199  and  _201
REMARK   89  A    between atoms: _201  and  _202
REMARK   90  A    between atoms: _201  and  _204
REMARK   91  A    between atoms: _204  and  _205
REMARK   92  A    between atoms: _215  and  _217
REMARK   93  A    between atoms: _217  and  _218
REMARK   94  A    between atoms: _220  and  _222
REMARK   95  A    between atoms: _222  and  _223
REMARK   96  A    between atoms: _222  and  _225
REMARK   97  A    between atoms: _225  and  _226
REMARK   98  A    between atoms: _228  and  _230
REMARK   99  A    between atoms: _230  and  _231
REMARK  100  A    between atoms: _233  and  _235
REMARK  101  A    between atoms: _235  and  _236
REMARK  102  A    between atoms: _235  and  _238
REMARK  103  A    between atoms: _238  and  _239
REMARK  104  A    between atoms: _240  and  _242
REMARK  105  A    between atoms: _242  and  _243
REMARK  106  A    between atoms: _246  and  _248
REMARK  107  A    between atoms: _248  and  _249
REMARK  108  A    between atoms: _248  and  _251
REMARK  109  A    between atoms: _251  and  _252
REMARK  110  A    between atoms: _252  and  _253
REMARK  111  A    between atoms: _258  and  _260
REMARK  112  A    between atoms: _260  and  _261
REMARK  113  A    between atoms: _260  and  _263
REMARK  114  A    between atoms: _263  and  _264
REMARK  115  A    between atoms: _264  and  _265
REMARK  116  A    between atoms: _265  and  _266
REMARK  117  A    between atoms: _266  and  _267
REMARK  118  A    between atoms: _272  and  _273
REMARK  119  A    between atoms: _278  and  _280
REMARK  120  A    between atoms: _280  and  _281
REMARK  121  A    between atoms: _283  and  _285
REMARK  122  A    between atoms: _285  and  _286
REMARK  123  A    between atoms: _285  and  _288
REMARK  124  A    between atoms: _291  and  _293
REMARK  125  A    between atoms: _293  and  _294
REMARK  126  A    between atoms: _293  and  _296
REMARK  127  A    between atoms: _296  and  _297
REMARK  128  A    between atoms: _302  and  _303
REMARK                            x       y       z     vdW  Elec       q    Type
REMARK                         _______ _______ _______ _____ _____    ______ ____
ROOT
ATOM      1  CB  CYS A   8      46.691  -7.965  26.958  0.00  0.00    +0.098 C 
ENDROOT
BRANCH   1   2
ATOM      2  SG  CYS A   8      46.137  -6.874  28.284  0.00  0.00    -0.080 S 
BRANCH   2   3
ATOM      3  SG  TRP A   4      47.887  -6.434  29.208  0.00  0.00    -0.080 S 
BRANCH   3   4
ATOM      4  CB  TRP A   4      48.543  -5.105  28.177  0.00  0.00    +0.098 C 
BRANCH   4   5
ATOM      5  CA  TRP A   4      47.623  -3.886  27.894  0.00  0.00    +0.160 C 
BRANCH   5   7
ATOM      6  C   SER A   3      48.076  -3.540  25.560  0.00  0.00    +0.243 C 
ATOM      7  N   TRP A   4      48.230  -3.133  26.784  0.00  0.00    -0.296 N 
ATOM      8  H   TRP A   4      48.783  -2.274  26.980  0.00  0.00    +0.150 HD
ATOM      9  O   SER A   3      47.413  -4.530  25.287  0.00  0.00    -0.273 OA
BRANCH   6  10
ATOM     10  CA  SER A   3      48.773  -2.712  24.430  0.00  0.00    +0.178 C 
BRANCH  10  13
ATOM     11  C   VAL A   2      49.315  -4.529  22.891  0.00  0.00    +0.241 C 
ATOM     12  O   VAL A   2      50.400  -4.731  23.421  0.00  0.00    -0.273 OA
ATOM     13  N   SER A   3      48.476  -3.591  23.272  0.00  0.00    -0.295 N 
ATOM     14  H   SER A   3      47.585  -3.462  22.751  0.00  0.00    +0.150 HD
BRANCH  11  15
ATOM     15  CA  VAL A   2      48.878  -5.402  21.709  0.00  0.00    +0.160 C 
BRANCH  15  17
ATOM     16  C   ILE A   1      49.901  -7.090  20.260  0.00  0.00    +0.238 C 
ATOM     17  N   VAL A   2      50.028  -6.302  21.298  0.00  0.00    -0.297 N 
ATOM     18  H   VAL A   2      50.916  -6.293  21.840  0.00  0.00    +0.150 HD
ATOM     19  O   ILE A   1      48.879  -7.124  19.587  0.00  0.00    -0.274 OA
BRANCH  16  20
ATOM     20  CA  ILE A   1      51.067  -8.015  19.842  0.00  0.00    +0.145 C 
BRANCH  20  21
ATOM     21  N   ILE A   1      50.504  -9.384  19.734  0.00  0.00    -0.238 NA
ATOM     22  H   ILE A   1      49.622  -9.533  19.204  0.00  0.00    +0.142 HD
ENDBRANCH  20  21
BRANCH  20  23
ATOM     23  CB  ILE A   1      51.617  -7.618  18.494  0.00  0.00    +0.026 C 
BRANCH  23  24
ATOM     24  CG  ILE A   1      52.646  -8.652  17.966  0.00  0.00    -0.000 C 
BRANCH  24  25
ATOM     25  CD  ILE A   1      53.375  -7.973  16.777  0.00  0.00    -0.024 C 
BRANCH  25  26
ATOM     26  CE  ILE A   1      54.085  -8.991  15.888  0.00  0.00    -0.086 C 
BRANCH  26  27
ATOM     27  NZ  ILE A   1      53.072  -9.679  15.033  0.00  0.00    +0.380 N 
ATOM     28  HZ1 ILE A   1      52.380 -10.164  15.639  0.00  0.00    -0.089 HD
ATOM     29  HZ2 ILE A   1      52.584  -8.976  14.442  0.00  0.00    -0.089 HD
ATOM     30  HZ3 ILE A   1      53.549 -10.374  14.424  0.00  0.00    -0.089 HD
ENDBRANCH  26  27
ENDBRANCH  25  26
ENDBRANCH  24  25
ENDBRANCH  23  24
ENDBRANCH  20  23
ENDBRANCH  16  20
ENDBRANCH  15  17
BRANCH  15  31
ATOM     31  CB  VAL A   2      47.697  -6.288  22.184  0.00  0.00    +0.143 C 
BRANCH  31  32
ATOM     32  CG  VAL A   2      46.317  -5.640  22.301  0.00  0.00    +0.367 C 
ATOM     33  OD2 VAL A   2      45.485  -6.368  22.826  0.00  0.00    -0.246 OA
ATOM     34  OD1 VAL A   2      46.150  -4.507  21.883  0.00  0.00    -0.246 OA
ENDBRANCH  31  32
ENDBRANCH  15  31
ENDBRANCH  11  15
ENDBRANCH  10  13
BRANCH  10  35
ATOM     35  CB  SER A   3      48.136  -1.263  24.263  0.00  0.00    +0.166 C 
BRANCH  35  36
ATOM     36  OG  SER A   3      46.827  -1.378  23.707  0.00  0.00    -0.380 OA
ATOM     37  H   SER A   3      46.883  -1.818  22.822  0.00  0.00    +0.211 HD
ENDBRANCH  35  36
ENDBRANCH  10  35
ENDBRANCH   6  10
ENDBRANCH   5   7
BRANCH   5  38
ATOM     38  C   TRP A   4      47.505  -2.973  29.104  0.00  0.00    +0.242 C 
ATOM     39  N   GLY A   5      47.080  -3.539  30.207  0.00  0.00    -0.297 N 
ATOM     40  H   GLY A   5      46.849  -4.553  30.223  0.00  0.00    +0.150 HD
ATOM     41  O   TRP A   4      47.819  -1.792  29.009  0.00  0.00    -0.273 OA
BRANCH  39  42
ATOM     42  CA  GLY A   5      46.930  -2.705  31.448  0.00  0.00    +0.149 C 
BRANCH  42  43
ATOM     43  C   GLY A   5      48.283  -2.006  31.783  0.00  0.00    +0.241 C 
ATOM     44  N   SER A   6      48.223  -0.767  32.177  0.00  0.00    -0.295 N 
ATOM     45  H   SER A   6      47.300  -0.295  32.258  0.00  0.00    +0.150 HD
ATOM     46  O   GLY A   5      49.344  -2.611  31.668  0.00  0.00    -0.273 OA
BRANCH  44  47
ATOM     47  CA  SER A   6      49.470  -0.017  32.514  0.00  0.00    +0.176 C 
BRANCH  47  48
ATOM     48  C   SER A   6      49.815   0.917  31.351  0.00  0.00    +0.243 C 
ATOM     49  O   SER A   6      50.521   1.896  31.512  0.00  0.00    -0.273 OA
ATOM     50  N   GLY A   7      49.306   0.576  30.193  0.00  0.00    -0.296 N 
ATOM     51  H   GLY A   7      48.721  -0.281  30.123  0.00  0.00    +0.150 HD
BRANCH  50  52
ATOM     52  CA  GLY A   7      49.552   1.395  28.977  0.00  0.00    +0.160 C 
BRANCH  52  53
ATOM     53  C   GLY A   7      48.454   2.481  28.819  0.00  0.00    +0.241 C 
ATOM     54  N   CYS A   8      47.335   2.295  29.497  0.00  0.00    -0.295 N 
ATOM     55  H   CYS A   8      47.242   1.445  30.089  0.00  0.00    +0.150 HD
ATOM     56  O   GLY A   7      48.655   3.437  28.078  0.00  0.00    -0.273 OA
BRANCH  54  57
ATOM     57  CA  CYS A   8      46.188   3.274  29.442  0.00  0.00    +0.178 C 
BRANCH  57  58
ATOM     58  C   CYS A   8      46.618   4.725  29.413  0.00  0.00    +0.243 C 
ATOM     59  O   CYS A   8      47.525   5.087  30.142  0.00  0.00    -0.273 OA
ATOM     60  N   ALA A   9      45.968   5.501  28.582  0.00  0.00    -0.295 N 
ATOM     61  H   ALA A   9      45.217   5.101  27.984  0.00  0.00    +0.150 HD
BRANCH  60  62
ATOM     62  CA  ALA A   9      46.291   6.942  28.486  0.00  0.00    +0.176 C 
BRANCH  62  63
ATOM     63  C   ALA A   9      47.438   7.302  27.561  0.00  0.00    +0.243 C 
ATOM     64  N   GLN A  10      48.189   6.303  27.204  0.00  0.00    -0.296 N 
ATOM     65  H   GLN A  10      47.985   5.338  27.533  0.00  0.00    +0.150 HD
ATOM     66  O   ALA A   9      47.592   8.455  27.202  0.00  0.00    -0.273 OA
BRANCH  64  67
ATOM     67  CA  GLN A  10      49.340   6.576  26.318  0.00  0.00    +0.163 C 
BRANCH  67  68
ATOM     68  C   GLN A  10      48.982   6.773  24.834  0.00  0.00    +0.229 C 
ATOM     69  O   GLN A  10      47.863   6.558  24.391  0.00  0.00    -0.286 OA
ENDBRANCH  67  68
ENDBRANCH  64  67
ENDBRANCH  62  63
ENDBRANCH  60  62
ENDBRANCH  57  58
BRANCH  57  70
ATOM     70  CB  CYS A   8      45.260   3.195  30.678  0.00  0.00    +0.166 C 
BRANCH  70  71
ATOM     71  O   CYS A   8      44.886   1.833  30.830  0.00  0.00    -0.380 OA
ATOM     72  H   CYS A   8      44.289   1.741  31.614  0.00  0.00    +0.211 HD
ENDBRANCH  70  71
ENDBRANCH  57  70
ENDBRANCH  54  57
ENDBRANCH  52  53
BRANCH  52  73
ATOM     73  CB  GLY A   7      49.560   0.483  27.703  0.00  0.00    +0.143 C 
BRANCH  73  74
ATOM     74  CG  GLY A   7      50.793  -0.454  27.613  0.00  0.00    +0.367 C 
ATOM     75  OD2 GLY A   7      51.851   0.007  28.029  0.00  0.00    -0.246 OA
ATOM     76  OD1 GLY A   7      50.628  -1.564  27.122  0.00  0.00    -0.246 OA
ENDBRANCH  73  74
ENDBRANCH  52  73
ENDBRANCH  50  52
ENDBRANCH  47  48
ENDBRANCH  44  47
ENDBRANCH  42  43
BRANCH  42  77
ATOM     77  CB  GLY A   5      46.445  -3.665  32.576  0.00  0.00    +0.039 C 
BRANCH  77  78
ATOM     78  CG  GLY A   5      47.472  -4.749  32.863  0.00  0.00    +0.087 C 
BRANCH  78  79
ATOM     79  CD  GLY A   5      46.823  -5.740  33.820  0.00  0.00    +0.219 C 
ATOM     80  OE1 GLY A   5      46.612  -5.402  34.966  0.00  0.00    -0.275 OA
ATOM     81  NE2 GLY A   5      46.490  -6.926  33.415  0.00  0.00    -0.329 N 
ATOM     82 HE21 GLY A   5      46.040  -7.593  34.074  0.00  0.00    +0.145 HD
ATOM     83 HE22 GLY A   5      46.673  -7.210  32.432  0.00  0.00    +0.145 HD
ENDBRANCH  78  79
ENDBRANCH  77  78
ENDBRANCH  42  77
ENDBRANCH  39  42
ENDBRANCH   5  38
ENDBRANCH   4   5
ENDBRANCH   3   4
ENDBRANCH   2   3
ENDBRANCH   1   2
BRANCH   1  84
ATOM     84  CA  CYS A   8      45.591  -8.417  26.013  0.00  0.00    +0.160 C 
BRANCH  84  85
ATOM     85  C   CYS A   8      46.163  -9.440  25.047  0.00  0.00    +0.242 C 
ATOM     86  O   CYS A   8      46.451 -10.559  25.414  0.00  0.00    -0.273 OA
ATOM     87  N   ALA A   9      46.309  -9.000  23.840  0.00  0.00    -0.297 N 
ATOM     88  H   ALA A   9      46.020  -8.019  23.649  0.00  0.00    +0.150 HD
BRANCH  87  89
ATOM     89  CA  ALA A   9      46.857  -9.786  22.705  0.00  0.00    +0.149 C 
ATOM     90  CB  ALA A   9      48.364 -10.033  23.020  0.00  0.00    +0.031 C 
BRANCH  89  91
ATOM     91  C   ALA A   9      46.119 -11.097  22.398  0.00  0.00    +0.241 C 
ATOM     92  N   GLN A  10      44.834 -11.084  22.609  0.00  0.00    -0.298 N 
ATOM     93  H   GLN A  10      44.373 -10.225  22.971  0.00  0.00    +0.150 HD
ATOM     94  O   ALA A   9      46.730 -12.053  21.959  0.00  0.00    -0.273 OA
BRANCH  92  95
ATOM     95  CA  GLN A  10      44.027 -12.303  22.331  0.00  0.00    +0.137 C 
BRANCH  95  96
ATOM     96  C   GLN A  10      43.635 -12.220  20.842  0.00  0.00    +0.227 C 
ATOM     97  O   GLN A  10      43.540 -11.148  20.255  0.00  0.00    -0.286 OA
ENDBRANCH  95  96
BRANCH  95  98
ATOM     98  CB  GLN A  10      42.719 -12.333  23.193  0.00  0.00    +0.037 C 
BRANCH  98  99
ATOM     99  CG  GLN A  10      43.043 -12.320  24.710  0.00  0.00    +0.087 C 
BRANCH  99 100
ATOM    100  CD  GLN A  10      43.964 -13.497  25.033  0.00  0.00    +0.219 C 
ATOM    101  NE2 GLN A  10      45.173 -13.289  25.458  0.00  0.00    -0.329 N 
ATOM    102 HE21 GLN A  10      45.797 -14.095  25.666  0.00  0.00    +0.145 HD
ATOM    103 HE22 GLN A  10      45.517 -12.317  25.591  0.00  0.00    +0.145 HD
ATOM    104  OE1 GLN A  10      43.591 -14.641  24.888  0.00  0.00    -0.275 OA
ENDBRANCH  99 100
ENDBRANCH  98  99
ENDBRANCH  95  98
ENDBRANCH  92  95
ENDBRANCH  89  91
ENDBRANCH  87  89
ENDBRANCH  84  85
BRANCH  84 105
ATOM    105  N   CYS A   8      44.486  -9.036  26.782  0.00  0.00    -0.296 N 
ATOM    106  H   CYS A   8      44.604  -9.994  27.168  0.00  0.00    +0.150 HD
ATOM    107  C   GLY A   7      43.371  -8.398  26.981  0.00  0.00    +0.243 C 
ATOM    108  O   GLY A   7      43.130  -7.276  26.574  0.00  0.00    -0.273 OA
BRANCH 107 109
ATOM    109  CA  GLY A   7      42.306  -9.135  27.776  0.00  0.00    +0.176 C 
BRANCH 109 110
ATOM    110  N   GLY A   7      41.046  -8.427  27.435  0.00  0.00    -0.295 N 
ATOM    111  H   GLY A   7      40.573  -7.837  28.149  0.00  0.00    +0.150 HD
ATOM    112  C   SER A   6      40.531  -8.543  26.243  0.00  0.00    +0.243 C 
ATOM    113  O   SER A   6      41.021  -9.198  25.330  0.00  0.00    -0.273 OA
BRANCH 112 114
ATOM    114  CA  SER A   6      39.236  -7.750  26.048  0.00  0.00    +0.178 C 
BRANCH 114 115
ATOM    115  N   SER A   6      39.643  -6.514  25.309  0.00  0.00    -0.295 N 
ATOM    116  C   GLY A   5      39.877  -5.384  25.925  0.00  0.00    +0.243 C 
ATOM    117  O   GLY A   5      39.772  -5.254  27.128  0.00  0.00    -0.273 OA
ATOM    118  H   SER A   6      39.743  -6.555  24.275  0.00  0.00    +0.150 HD
BRANCH 116 119
ATOM    119  CA  GLY A   5      40.296  -4.183  25.064  0.00  0.00    +0.176 C 
BRANCH 119 120
ATOM    120  N   GLY A   5      40.238  -2.978  25.914  0.00  0.00    -0.295 N 
ATOM    121  H   GLY A   5      39.938  -3.064  26.906  0.00  0.00    +0.150 HD
ATOM    122  C   TRP A   4      40.555  -1.819  25.442  0.00  0.00    +0.241 C 
ATOM    123  O   TRP A   4      40.933  -1.630  24.300  0.00  0.00    -0.273 OA
BRANCH 122 124
ATOM    124  CA  TRP A   4      40.427  -0.676  26.432  0.00  0.00    +0.153 C 
BRANCH 124 125
ATOM    125  N   TRP A   4      40.829   0.640  25.876  0.00  0.00    -0.297 N 
ATOM    126  C   SER A   3      41.172   1.606  26.706  0.00  0.00    +0.243 C 
ATOM    127  O   SER A   3      41.173   1.457  27.920  0.00  0.00    -0.273 OA
ATOM    128  H   TRP A   4      40.840   0.798  24.848  0.00  0.00    +0.150 HD
BRANCH 126 129
ATOM    129  CA  SER A   3      41.581   2.984  26.159  0.00  0.00    +0.178 C 
BRANCH 129 130
ATOM    130  N   SER A   3      42.833   2.985  25.361  0.00  0.00    -0.295 N 
ATOM    131  C   VAL A   2      43.864   3.682  25.761  0.00  0.00    +0.241 C 
ATOM    132  O   VAL A   2      43.907   4.341  26.792  0.00  0.00    -0.273 OA
ATOM    133  H   SER A   3      42.890   2.431  24.483  0.00  0.00    +0.150 HD
BRANCH 131 134
ATOM    134  CA  VAL A   2      45.099   3.625  24.834  0.00  0.00    +0.148 C 
BRANCH 134 135
ATOM    135  N   VAL A   2      45.341   5.035  24.396  0.00  0.00    -0.297 N 
ATOM    136  H   VAL A   2      46.251   5.480  24.631  0.00  0.00    +0.150 HD
ATOM    137  C   ILE A   1      44.459   5.732  23.731  0.00  0.00    +0.238 C 
ATOM    138  O   ILE A   1      43.367   5.291  23.392  0.00  0.00    -0.274 OA
BRANCH 137 139
ATOM    139  CA  ILE A   1      44.855   7.179  23.353  0.00  0.00    +0.145 C 
BRANCH 139 140
ATOM    140  CB  ILE A   1      44.004   8.268  24.176  0.00  0.00    +0.025 C 
ATOM    141  CG2 ILE A   1      44.284   8.158  25.709  0.00  0.00    +0.002 C 
BRANCH 140 142
ATOM    142  CG1 ILE A   1      44.246   9.718  23.654  0.00  0.00    +0.002 C 
ATOM    143  CD1 ILE A   1      43.224  10.665  24.295  0.00  0.00    +0.000 C 
ENDBRANCH 140 142
ENDBRANCH 139 140
BRANCH 139 144
ATOM    144  N   ILE A   1      44.520   7.231  21.905  0.00  0.00    -0.238 NA
ATOM    145  H   ILE A   1      43.615   6.826  21.591  0.00  0.00    +0.142 HD
ENDBRANCH 139 144
ENDBRANCH 137 139
ENDBRANCH 134 135
BRANCH 134 146
ATOM    146  CB  VAL A   2      46.364   3.121  25.582  0.00  0.00    +0.027 C 
ATOM    147  CG2 VAL A   2      46.135   1.675  26.024  0.00  0.00    +0.002 C 
ATOM    148  CG1 VAL A   2      47.629   3.190  24.636  0.00  0.00    +0.002 C 
ENDBRANCH 134 146
ENDBRANCH 131 134
ENDBRANCH 129 130
BRANCH 129 149
ATOM    149  CB  SER A   3      40.475   3.620  25.237  0.00  0.00    +0.166 C 
BRANCH 149 150
ATOM    150  OG  SER A   3      39.269   3.800  25.990  0.00  0.00    -0.380 OA
ATOM    151  H   SER A   3      39.446   4.402  26.756  0.00  0.00    +0.211 HD
ENDBRANCH 149 150
ENDBRANCH 129 149
ENDBRANCH 126 129
ENDBRANCH 124 125
BRANCH 124 152
ATOM    152  CB  TRP A   4      38.928  -0.593  26.938  0.00  0.00    +0.057 C 
BRANCH 152 153
ATOM    153  CG  TRP A   4      37.907  -0.274  25.840  0.00  0.00    -0.002 A 
ATOM    154  CD1 TRP A   4      37.536   0.922  25.294  0.00  0.00    +0.068 A 
ATOM    155  NE1 TRP A   4      36.624   0.814  24.377  0.00  0.00    -0.352 N 
ATOM    156  CE2 TRP A   4      36.342  -0.445  24.270  0.00  0.00    +0.056 A 
ATOM    157  CZ2 TRP A   4      35.439  -1.143  23.431  0.00  0.00    +0.017 A 
ATOM    158  CH2 TRP A   4      35.331  -2.538  23.514  0.00  0.00    +0.001 A 
ATOM    159  CZ3 TRP A   4      36.110  -3.253  24.419  0.00  0.00    +0.000 A 
ATOM    160  CE3 TRP A   4      37.005  -2.573  25.245  0.00  0.00    +0.001 A 
ATOM    161  HE1 TRP A   4      36.200   1.591  23.832  0.00  0.00    +0.166 HD
ATOM    162  CD2 TRP A   4      37.114  -1.210  25.165  0.00  0.00    +0.013 A 
ENDBRANCH 152 153
ENDBRANCH 124 152
ENDBRANCH 122 124
ENDBRANCH 119 120
ENDBRANCH 116 119
ENDBRANCH 114 115
BRANCH 114 163
ATOM    163  CB  SER A   6      38.246  -8.556  25.199  0.00  0.00    +0.166 C 
BRANCH 163 164
ATOM    164  OG  SER A   6      37.117  -7.702  25.054  0.00  0.00    -0.380 OA
ATOM    165  H   SER A   6      36.427  -8.159  24.511  0.00  0.00    +0.211 HD
ENDBRANCH 163 164
ENDBRANCH 114 163
ENDBRANCH 112 114
ENDBRANCH 109 110
ENDBRANCH 107 109
ENDBRANCH  84 105
ENDBRANCH   1  84
TORSDOF 73
REMARK  Name = ../refined-set-2016/1c5q/1c5q_pocket.pdb
REMARK  128 active torsions:
REMARK  status: ('A' for Active; 'I' for Inactive)
REMARK    1  A    between atoms: _1  and  _3
REMARK    2  A    between atoms: _3  and  _4
REMARK    3  A    between atoms: _3  and  _6
REMARK    4  A    between atoms: _9  and  _11
REMARK    5  A    between atoms: _11  and  _12
REMARK    6  A    between atoms: _11  and  _14
REMARK    7  A    between atoms: _16  and  _18
REMARK    8  A    between atoms: _18  and  _19
REMARK    9  A    between atoms: _18  and  _21
REMARK   10  A    between atoms: _21  and  _22
REMARK   11  A    between atoms: _27  and  _29
REMARK   12  A    between atoms: _29  and  _30
REMARK   13  A    between atoms: _29  and  _32
REMARK   14  A    between atoms: _32  and  _33
REMARK   15  A    between atoms: _36  and  _38
REMARK   16  A    between atoms: _38  and  _39
REMARK   17  A    between atoms: _38  and  _41
REMARK   18  A    between atoms: _41  and  _42
REMARK   19  A    between atoms: _45  and  _47
REMARK   20  A    between atoms: _47  and  _48
REMARK   21  A    between atoms: _47  and  _50
REMARK   22  A    between atoms: _50  and  _51
REMARK   23  A    between atoms: _54  and  _56
REMARK   24  A    between atoms: _56  and  _57
REMARK   25  A    between atoms: _56  and  _59
REMARK   26  A    between atoms: _59  and  _60
REMARK   27  A    between atoms: _65  and  _67
REMARK   28  A    between atoms: _67  and  _68
REMARK   29  A    between atoms: _67  and  _70
REMARK   30  A    between atoms: _70  and  _71
REMARK   31  A    between atoms: _73  and  _75
REMARK   32  A    between atoms: _75  and  _76
REMARK   33  A    between atoms: _75  and  _78
REMARK   34  A    between atoms: _78  and  _79
REMARK   35  A    between atoms: _84  and  _85
REMARK   36  A    between atoms: _87  and  _89
REMARK   37  A    between atoms: _89  and  _90
REMARK   38  A    between atoms: _93  and  _95
REMARK   39  A    between atoms: _95  and  _96
REMARK   40  A    between atoms: _95  and  _98
REMARK   41  A    between atoms: _98  and  _99
REMARK   42  A    between atoms: _99  and  _100
REMARK   43  A    between atoms: _100  and  _101
REMARK   44  A    between atoms: _101  and  _102
REMARK   45  A    between atoms: _106  and  _108
REMARK   46  A    between atoms: _108  and  _109
REMARK   47  A    between atoms: _108  and  _111
REMARK   48  A    between atoms: _111  and  _112
REMARK   49  A    between atoms: _115  and  _117
REMARK   50  A    between atoms: _117  and  _118
REMARK   51  A    between atoms: _117  and  _120
REMARK   52  A    between atoms: _120  and  _121
REMARK   53  A    between atoms: _123  and  _125
REMARK   54  A    between atoms: _125  and  _126
REMARK   55  A    between atoms: _125  and  _128
REMARK   56  A    between atoms: _128  and  _129
REMARK   57  A    between atoms: _129  and  _239
REMARK   58  A    between atoms: _130  and  _132
REMARK   59  A    between atoms: _132  and  _133
REMARK   60  A    between atoms: _132  and  _135
REMARK   61  A    between atoms: _135  and  _136
REMARK   62  A    between atoms: _136  and  _137
REMARK   63  A    between atoms: _142  and  _144
REMARK   64  A    between atoms: _144  and  _145
REMARK   65  A    between atoms: _147  and  _149
REMARK   66  A    between atoms: _149  and  _150
REMARK   67  A    between atoms: _149  and  _152
REMARK   68  A    between atoms: _152  and  _153
REMARK   69  A    between atoms: _156  and  _158
REMARK   70  A    between atoms: _158  and  _159
REMARK   71  A    between atoms: _158  and  _161
REMARK   72  A    between atoms: _161  and  _162
REMARK   73  A    between atoms: _164  and  _166
REMARK   74  A    between atoms: _166  and  _167
REMARK   75  A    between atoms: _169  and  _171
REMARK   76  A    between atoms: _171  and  _172
REMARK   77  A    between atoms: _174  and  _176
REMARK   78  A    between atoms: _176  and  _177
REMARK   79  A    between atoms: _176  and  _179
REMARK   80  A    between atoms: _179  and  _180
REMARK   81  A    between atoms: _183  and  _185
REMARK   82  A    between atoms: _185  and  _186
REMARK   83  A    between atoms: _185  and  _188
REMARK   84  A    between atoms: _191  and  _193
REMARK   85  A    between atoms: _193  and  _194
REMARK   86  A    between atoms: _193  and  _196
REMARK   87  A    between atoms: _196  and  _197
REMARK   88  A    between atoms: _199  and  _201
REMARK   89  A    between atoms: _201  and  _202
REMARK   90  A    between atoms: _201  and  _204
REMARK   91  A    between atoms: _204  and  _205
REMARK   92  A    between atoms: _215  and  _217
REMARK   93  A    between atoms: _217  and  _218
REMARK   94  A    between atoms: _220  and  _222
REMARK   95  A    between atoms: _222  and  _223
REMARK   96  A    between atoms: _222  and  _225
REMARK   97  A    between atoms: _225  and  _226
REMARK   98  A    between atoms: _228  and  _230
REMARK   99  A    between atoms: _230  and  _231
REMARK  100  A    between atoms: _233  and  _235
REMARK  101  A    between atoms: _235  and  _236
REMARK  102  A    between atoms: _235  and  _238
REMARK  103  A    between atoms: _238  and  _239
REMARK  104  A    between atoms: _240  and  _242
REMARK  105  A    between atoms: _242  and  _243
REMARK  106  A    between atoms: _246  and  _248
REMARK  107  A    between atoms: _248  and  _249
REMARK  108  A    between atoms: _248  and  _251
REMARK  109  A    between atoms: _251  and  _252
REMARK  110  A    between atoms: _252  and  _253
REMARK  111  A    between atoms: _258  and  _260
REMARK  112  A    between atoms: _260  and  _261
REMARK  113  A    between atoms: _260  and  _263
REMARK  114  A    between atoms: _263  and  _264
REMARK  115  A    between atoms: _264  and  _265
REMARK  116  A    between atoms: _265  and  _266
REMARK  117  A    between atoms: _266  and  _267
REMARK  118  A    between atoms: _272  and  _273
REMARK  119  A    between atoms: _278  and  _280
REMARK  120  A    between atoms: _280  and  _281
REMARK  121  A    between atoms: _283  and  _285
REMARK  122  A    between atoms: _285  and  _286
REMARK  123  A    between atoms: _285  and  _288
REMARK  124  A    between atoms: _291  and  _293
REMARK  125  A    between atoms: _293  and  _294
REMARK  126  A    between atoms: _293  and  _296
REMARK  127  A    between atoms: _296  and  _297
REMARK  128  A    between atoms: _302  and  _303
REMARK                            x       y       z     vdW  Elec       q    Type
REMARK                         _______ _______ _______ _____ _____    ______ ____
ROOT
ATOM      1  C   GLY A   3      41.974  -1.795  20.703  0.00  0.00    +0.243 C 
ATOM      2  N   VAL A   4      41.298  -1.071  21.560  0.00  0.00    -0.297 N 
ATOM      3  H   VAL A   4      41.421  -1.260  22.575  0.00  0.00    +0.150 HD
ATOM      4  O   GLY A   3      41.922  -1.684  19.485  0.00  0.00    -0.273 OA
ENDROOT
BRANCH   1   5
ATOM      5  CA  GLY A   3      42.873  -2.837  21.336  0.00  0.00    +0.176 C 
BRANCH   5   8
ATOM      6  C   PRO A   2      42.095  -4.828  20.225  0.00  0.00    +0.241 C 
ATOM      7  O   PRO A   2      41.116  -4.846  20.950  0.00  0.00    -0.273 OA
ATOM      8  N   GLY A   3      43.021  -3.905  20.314  0.00  0.00    -0.295 N 
ATOM      9  H   GLY A   3      43.845  -3.920  19.680  0.00  0.00    +0.150 HD
BRANCH   6  13
ATOM     10  C   LYS A   1      41.329  -7.879  20.229  0.00  0.00    +0.241 C 
ATOM     11  O   LYS A   1      42.163  -7.874  21.132  0.00  0.00    -0.273 OA
ATOM     12  N   PRO A   2      41.329  -7.024  19.226  0.00  0.00    -0.272 N 
ATOM     13  CA  PRO A   2      42.300  -5.907  19.137  0.00  0.00    +0.152 C 
ATOM     14  CB  PRO A   2      42.106  -5.389  17.697  0.00  0.00    +0.031 C 
ATOM     15  CG  PRO A   2      40.623  -5.668  17.415  0.00  0.00    +0.024 C 
ATOM     16  CD  PRO A   2      40.402  -7.033  18.056  0.00  0.00    +0.094 C 
BRANCH  10  17
ATOM     17  CA  LYS A   1      40.217  -8.932  20.205  0.00  0.00    +0.145 C 
BRANCH  17  18
ATOM     18  N   LYS A   1      40.614  -9.963  19.186  0.00  0.00    -0.238 NA
ATOM     19  H   LYS A   1      41.576 -10.356  19.223  0.00  0.00    +0.142 HD
ENDBRANCH  17  18
BRANCH  17  20
ATOM     20  CB  LYS A   1      40.082  -9.550  21.625  0.00  0.00    +0.026 C 
BRANCH  20  21
ATOM     21  CG  LYS A   1      38.944 -10.616  21.667  0.00  0.00    -0.000 C 
BRANCH  21  22
ATOM     22  CD  LYS A   1      37.540  -9.973  21.340  0.00  0.00    -0.024 C 
BRANCH  22  23
ATOM     23  CE  LYS A   1      36.514 -11.126  21.160  0.00  0.00    -0.086 C 
BRANCH  23  24
ATOM     24  NZ  LYS A   1      35.171 -10.567  20.865  0.00  0.00    +0.380 N 
ATOM     25  HZ1 LYS A   1      34.869  -9.959  21.653  0.00  0.00    -0.089 HD
ATOM     26  HZ2 LYS A   1      34.491 -11.345  20.746  0.00  0.00    -0.089 HD
ATOM     27  HZ3 LYS A   1      35.215 -10.007  19.990  0.00  0.00    -0.089 HD
ENDBRANCH  23  24
ENDBRANCH  22  23
ENDBRANCH  21  22
ENDBRANCH  20  21
ENDBRANCH  17  20
ENDBRANCH  10  17
ENDBRANCH   6  13
ENDBRANCH   5   8
ENDBRANCH   1   5
BRANCH   2  28
ATOM     28  CA  VAL A   4      40.372  -0.001  21.151  0.00  0.00    +0.149 C 
BRANCH  28  29
ATOM     29  C   VAL A   4      41.003   1.267  21.757  0.00  0.00    +0.241 C 
ATOM     30  O   VAL A   4      41.478   1.317  22.892  0.00  0.00    -0.273 OA
ATOM     31  N   TYR A   5      40.968   2.268  20.935  0.00  0.00    -0.298 N 
ATOM     32  H   TYR A   5      40.516   2.123  20.010  0.00  0.00    +0.150 HD
BRANCH  31  33
ATOM     33  CA  TYR A   5      41.529   3.601  21.229  0.00  0.00    +0.141 C 
BRANCH  33  34
ATOM     34  C   TYR A   5      40.595   4.791  21.070  0.00  0.00    +0.227 C 
ATOM     35  O   TYR A   5      39.715   4.729  20.228  0.00  0.00    -0.286 OA
ENDBRANCH  33  34
BRANCH  33  36
ATOM     36  CB  TYR A   5      42.768   3.744  20.272  0.00  0.00    +0.054 C 
BRANCH  36  37
ATOM     37  CG  TYR A   5      43.759   2.577  20.466  0.00  0.00    -0.020 A 
ATOM     38  CD2 TYR A   5      44.737   2.680  21.430  0.00  0.00    -0.001 A 
ATOM     39  CE2 TYR A   5      45.616   1.649  21.656  0.00  0.00    +0.036 A 
ATOM     40  CZ  TYR A   5      45.550   0.481  20.926  0.00  0.00    +0.134 A 
ATOM     41  CE1 TYR A   5      44.569   0.357  19.944  0.00  0.00    +0.036 A 
ATOM     42  CD1 TYR A   5      43.676   1.407  19.716  0.00  0.00    -0.001 A 
BRANCH  40  43
ATOM     43  OH  TYR A   5      46.438  -0.551  21.177  0.00  0.00    -0.506 OA
ATOM     44  HH  TYR A   5      46.955  -0.747  20.356  0.00  0.00    +0.292 HD
ENDBRANCH  40  43
ENDBRANCH  36  37
ENDBRANCH  33  36
ENDBRANCH  31  33
ENDBRANCH  28  29
BRANCH  28  45
ATOM     45  CB  VAL A   4      38.944  -0.311  21.713  0.00  0.00    +0.027 C 
ATOM     46  CG2 VAL A   4      38.462  -1.723  21.275  0.00  0.00    +0.002 C 
ATOM     47  CG1 VAL A   4      37.981   0.755  21.141  0.00  0.00    +0.002 C 
ENDBRANCH  28  45
ENDBRANCH   2  28
TORSDOF 18
REMARK  Name = ../refined-set-2016/1c5q/1c5q_pocket.pdb
REMARK  128 active torsions:
REMARK  status: ('A' for Active; 'I' for Inactive)
REMARK    1  A    between atoms: _1  and  _3
REMARK    2  A    between atoms: _3  and  _4
REMARK    3  A    between atoms: _3  and  _6
REMARK    4  A    between atoms: _9  and  _11
REMARK    5  A    between atoms: _11  and  _12
REMARK    6  A    between atoms: _11  and  _14
REMARK    7  A    between atoms: _16  and  _18
REMARK    8  A    between atoms: _18  and  _19
REMARK    9  A    between atoms: _18  and  _21
REMARK   10  A    between atoms: _21  and  _22
REMARK   11  A    between atoms: _27  and  _29
REMARK   12  A    between atoms: _29  and  _30
REMARK   13  A    between atoms: _29  and  _32
REMARK   14  A    between atoms: _32  and  _33
REMARK   15  A    between atoms: _36  and  _38
REMARK   16  A    between atoms: _38  and  _39
REMARK   17  A    between atoms: _38  and  _41
REMARK   18  A    between atoms: _41  and  _42
REMARK   19  A    between atoms: _45  and  _47
REMARK   20  A    between atoms: _47  and  _48
REMARK   21  A    between atoms: _47  and  _50
REMARK   22  A    between atoms: _50  and  _51
REMARK   23  A    between atoms: _54  and  _56
REMARK   24  A    between atoms: _56  and  _57
REMARK   25  A    between atoms: _56  and  _59
REMARK   26  A    between atoms: _59  and  _60
REMARK   27  A    between atoms: _65  and  _67
REMARK   28  A    between atoms: _67  and  _68
REMARK   29  A    between atoms: _67  and  _70
REMARK   30  A    between atoms: _70  and  _71
REMARK   31  A    between atoms: _73  and  _75
REMARK   32  A    between atoms: _75  and  _76
REMARK   33  A    between atoms: _75  and  _78
REMARK   34  A    between atoms: _78  and  _79
REMARK   35  A    between atoms: _84  and  _85
REMARK   36  A    between atoms: _87  and  _89
REMARK   37  A    between atoms: _89  and  _90
REMARK   38  A    between atoms: _93  and  _95
REMARK   39  A    between atoms: _95  and  _96
REMARK   40  A    between atoms: _95  and  _98
REMARK   41  A    between atoms: _98  and  _99
REMARK   42  A    between atoms: _99  and  _100
REMARK   43  A    between atoms: _100  and  _101
REMARK   44  A    between atoms: _101  and  _102
REMARK   45  A    between atoms: _106  and  _108
REMARK   46  A    between atoms: _108  and  _109
REMARK   47  A    between atoms: _108  and  _111
REMARK   48  A    between atoms: _111  and  _112
REMARK   49  A    between atoms: _115  and  _117
REMARK   50  A    between atoms: _117  and  _118
REMARK   51  A    between atoms: _117  and  _120
REMARK   52  A    between atoms: _120  and  _121
REMARK   53  A    between atoms: _123  and  _125
REMARK   54  A    between atoms: _125  and  _126
REMARK   55  A    between atoms: _125  and  _128
REMARK   56  A    between atoms: _128  and  _129
REMARK   57  A    between atoms: _129  and  _239
REMARK   58  A    between atoms: _130  and  _132
REMARK   59  A    between atoms: _132  and  _133
REMARK   60  A    between atoms: _132  and  _135
REMARK   61  A    between atoms: _135  and  _136
REMARK   62  A    between atoms: _136  and  _137
REMARK   63  A    between atoms: _142  and  _144
REMARK   64  A    between atoms: _144  and  _145
REMARK   65  A    between atoms: _147  and  _149
REMARK   66  A    between atoms: _149  and  _150
REMARK   67  A    between atoms: _149  and  _152
REMARK   68  A    between atoms: _152  and  _153
REMARK   69  A    between atoms: _156  and  _158
REMARK   70  A    between atoms: _158  and  _159
REMARK   71  A    between atoms: _158  and  _161
REMARK   72  A    between atoms: _161  and  _162
REMARK   73  A    between atoms: _164  and  _166
REMARK   74  A    between atoms: _166  and  _167
REMARK   75  A    between atoms: _169  and  _171
REMARK   76  A    between atoms: _171  and  _172
REMARK   77  A    between atoms: _174  and  _176
REMARK   78  A    between atoms: _176  and  _177
REMARK   79  A    between atoms: _176  and  _179
REMARK   80  A    between atoms: _179  and  _180
REMARK   81  A    between atoms: _183  and  _185
REMARK   82  A    between atoms: _185  and  _186
REMARK   83  A    between atoms: _185  and  _188
REMARK   84  A    between atoms: _191  and  _193
REMARK   85  A    between atoms: _193  and  _194
REMARK   86  A    between atoms: _193  and  _196
REMARK   87  A    between atoms: _196  and  _197
REMARK   88  A    between atoms: _199  and  _201
REMARK   89  A    between atoms: _201  and  _202
REMARK   90  A    between atoms: _201  and  _204
REMARK   91  A    between atoms: _204  and  _205
REMARK   92  A    between atoms: _215  and  _217
REMARK   93  A    between atoms: _217  and  _218
REMARK   94  A    between atoms: _220  and  _222
REMARK   95  A    between atoms: _222  and  _223
REMARK   96  A    between atoms: _222  and  _225
REMARK   97  A    between atoms: _225  and  _226
REMARK   98  A    between atoms: _228  and  _230
REMARK   99  A    between atoms: _230  and  _231
REMARK  100  A    between atoms: _233  and  _235
REMARK  101  A    between atoms: _235  and  _236
REMARK  102  A    between atoms: _235  and  _238
REMARK  103  A    between atoms: _238  and  _239
REMARK  104  A    between atoms: _240  and  _242
REMARK  105  A    between atoms: _242  and  _243
REMARK  106  A    between atoms: _246  and  _248
REMARK  107  A    between atoms: _248  and  _249
REMARK  108  A    between atoms: _248  and  _251
REMARK  109  A    between atoms: _251  and  _252
REMARK  110  A    between atoms: _252  and  _253
REMARK  111  A    between atoms: _258  and  _260
REMARK  112  A    between atoms: _260  and  _261
REMARK  113  A    between atoms: _260  and  _263
REMARK  114  A    between atoms: _263  and  _264
REMARK  115  A    between atoms: _264  and  _265
REMARK  116  A    between atoms: _265  and  _266
REMARK  117  A    between atoms: _266  and  _267
REMARK  118  A    between atoms: _272  and  _273
REMARK  119  A    between atoms: _278  and  _280
REMARK  120  A    between atoms: _280  and  _281
REMARK  121  A    between atoms: _283  and  _285
REMARK  122  A    between atoms: _285  and  _286
REMARK  123  A    between atoms: _285  and  _288
REMARK  124  A    between atoms: _291  and  _293
REMARK  125  A    between atoms: _293  and  _294
REMARK  126  A    between atoms: _293  and  _296
REMARK  127  A    between atoms: _296  and  _297
REMARK  128  A    between atoms: _302  and  _303
REMARK                            x       y       z     vdW  Elec       q    Type
REMARK                         _______ _______ _______ _____ _____    ______ ____
ROOT
ATOM      1  O   HOH     1      44.991  -8.218  20.384  0.00  0.00    +0.000 OA
ENDROOT
TORSDOF 0
REMARK  Name = ../refined-set-2016/1c5q/1c5q_pocket.pdb
REMARK  128 active torsions:
REMARK  status: ('A' for Active; 'I' for Inactive)
REMARK    1  A    between atoms: _1  and  _3
REMARK    2  A    between atoms: _3  and  _4
REMARK    3  A    between atoms: _3  and  _6
REMARK    4  A    between atoms: _9  and  _11
REMARK    5  A    between atoms: _11  and  _12
REMARK    6  A    between atoms: _11  and  _14
REMARK    7  A    between atoms: _16  and  _18
REMARK    8  A    between atoms: _18  and  _19
REMARK    9  A    between atoms: _18  and  _21
REMARK   10  A    between atoms: _21  and  _22
REMARK   11  A    between atoms: _27  and  _29
REMARK   12  A    between atoms: _29  and  _30
REMARK   13  A    between atoms: _29  and  _32
REMARK   14  A    between atoms: _32  and  _33
REMARK   15  A    between atoms: _36  and  _38
REMARK   16  A    between atoms: _38  and  _39
REMARK   17  A    between atoms: _38  and  _41
REMARK   18  A    between atoms: _41  and  _42
REMARK   19  A    between atoms: _45  and  _47
REMARK   20  A    between atoms: _47  and  _48
REMARK   21  A    between atoms: _47  and  _50
REMARK   22  A    between atoms: _50  and  _51
REMARK   23  A    between atoms: _54  and  _56
REMARK   24  A    between atoms: _56  and  _57
REMARK   25  A    between atoms: _56  and  _59
REMARK   26  A    between atoms: _59  and  _60
REMARK   27  A    between atoms: _65  and  _67
REMARK   28  A    between atoms: _67  and  _68
REMARK   29  A    between atoms: _67  and  _70
REMARK   30  A    between atoms: _70  and  _71
REMARK   31  A    between atoms: _73  and  _75
REMARK   32  A    between atoms: _75  and  _76
REMARK   33  A    between atoms: _75  and  _78
REMARK   34  A    between atoms: _78  and  _79
REMARK   35  A    between atoms: _84  and  _85
REMARK   36  A    between atoms: _87  and  _89
REMARK   37  A    between atoms: _89  and  _90
REMARK   38  A    between atoms: _93  and  _95
REMARK   39  A    between atoms: _95  and  _96
REMARK   40  A    between atoms: _95  and  _98
REMARK   41  A    between atoms: _98  and  _99
REMARK   42  A    between atoms: _99  and  _100
REMARK   43  A    between atoms: _100  and  _101
REMARK   44  A    between atoms: _101  and  _102
REMARK   45  A    between atoms: _106  and  _108
REMARK   46  A    between atoms: _108  and  _109
REMARK   47  A    between atoms: _108  and  _111
REMARK   48  A    between atoms: _111  and  _112
REMARK   49  A    between atoms: _115  and  _117
REMARK   50  A    between atoms: _117  and  _118
REMARK   51  A    between atoms: _117  and  _120
REMARK   52  A    between atoms: _120  and  _121
REMARK   53  A    between atoms: _123  and  _125
REMARK   54  A    between atoms: _125  and  _126
REMARK   55  A    between atoms: _125  and  _128
REMARK   56  A    between atoms: _128  and  _129
REMARK   57  A    between atoms: _129  and  _239
REMARK   58  A    between atoms: _130  and  _132
REMARK   59  A    between atoms: _132  and  _133
REMARK   60  A    between atoms: _132  and  _135
REMARK   61  A    between atoms: _135  and  _136
REMARK   62  A    between atoms: _136  and  _137
REMARK   63  A    between atoms: _142  and  _144
REMARK   64  A    between atoms: _144  and  _145
REMARK   65  A    between atoms: _147  and  _149
REMARK   66  A    between atoms: _149  and  _150
REMARK   67  A    between atoms: _149  and  _152
REMARK   68  A    between atoms: _152  and  _153
REMARK   69  A    between atoms: _156  and  _158
REMARK   70  A    between atoms: _158  and  _159
REMARK   71  A    between atoms: _158  and  _161
REMARK   72  A    between atoms: _161  and  _162
REMARK   73  A    between atoms: _164  and  _166
REMARK   74  A    between atoms: _166  and  _167
REMARK   75  A    between atoms: _169  and  _171
REMARK   76  A    between atoms: _171  and  _172
REMARK   77  A    between atoms: _174  and  _176
REMARK   78  A    between atoms: _176  and  _177
REMARK   79  A    between atoms: _176  and  _179
REMARK   80  A    between atoms: _179  and  _180
REMARK   81  A    between atoms: _183  and  _185
REMARK   82  A    between atoms: _185  and  _186
REMARK   83  A    between atoms: _185  and  _188
REMARK   84  A    between atoms: _191  and  _193
REMARK   85  A    between atoms: _193  and  _194
REMARK   86  A    between atoms: _193  and  _196
REMARK   87  A    between atoms: _196  and  _197
REMARK   88  A    between atoms: _199  and  _201
REMARK   89  A    between atoms: _201  and  _202
REMARK   90  A    between atoms: _201  and  _204
REMARK   91  A    between atoms: _204  and  _205
REMARK   92  A    between atoms: _215  and  _217
REMARK   93  A    between atoms: _217  and  _218
REMARK   94  A    between atoms: _220  and  _222
REMARK   95  A    between atoms: _222  and  _223
REMARK   96  A    between atoms: _222  and  _225
REMARK   97  A    between atoms: _225  and  _226
REMARK   98  A    between atoms: _228  and  _230
REMARK   99  A    between atoms: _230  and  _231
REMARK  100  A    between atoms: _233  and  _235
REMARK  101  A    between atoms: _235  and  _236
REMARK  102  A    between atoms: _235  and  _238
REMARK  103  A    between atoms: _238  and  _239
REMARK  104  A    between atoms: _240  and  _242
REMARK  105  A    between atoms: _242  and  _243
REMARK  106  A    between atoms: _246  and  _248
REMARK  107  A    between atoms: _248  and  _249
REMARK  108  A    between atoms: _248  and  _251
REMARK  109  A    between atoms: _251  and  _252
REMARK  110  A    between atoms: _252  and  _253
REMARK  111  A    between atoms: _258  and  _260
REMARK  112  A    between atoms: _260  and  _261
REMARK  113  A    between atoms: _260  and  _263
REMARK  114  A    between atoms: _263  and  _264
REMARK  115  A    between atoms: _264  and  _265
REMARK  116  A    between atoms: _265  and  _266
REMARK  117  A    between atoms: _266  and  _267
REMARK  118  A    between atoms: _272  and  _273
REMARK  119  A    between atoms: _278  and  _280
REMARK  120  A    between atoms: _280  and  _281
REMARK  121  A    between atoms: _283  and  _285
REMARK  122  A    between atoms: _285  and  _286
REMARK  123  A    between atoms: _285  and  _288
REMARK  124  A    between atoms: _291  and  _293
REMARK  125  A    between atoms: _293  and  _294
REMARK  126  A    between atoms: _293  and  _296
REMARK  127  A    between atoms: _296  and  _297
REMARK  128  A    between atoms: _302  and  _303
REMARK                            x       y       z     vdW  Elec       q    Type
REMARK                         _______ _______ _______ _____ _____    ______ ____
ROOT
ATOM      1  O   HOH     1      46.192  -6.352  18.798  0.00  0.00    +0.000 OA
ENDROOT
TORSDOF 0
REMARK  Name = ../refined-set-2016/1c5q/1c5q_pocket.pdb
REMARK  128 active torsions:
REMARK  status: ('A' for Active; 'I' for Inactive)
REMARK    1  A    between atoms: _1  and  _3
REMARK    2  A    between atoms: _3  and  _4
REMARK    3  A    between atoms: _3  and  _6
REMARK    4  A    between atoms: _9  and  _11
REMARK    5  A    between atoms: _11  and  _12
REMARK    6  A    between atoms: _11  and  _14
REMARK    7  A    between atoms: _16  and  _18
REMARK    8  A    between atoms: _18  and  _19
REMARK    9  A    between atoms: _18  and  _21
REMARK   10  A    between atoms: _21  and  _22
REMARK   11  A    between atoms: _27  and  _29
REMARK   12  A    between atoms: _29  and  _30
REMARK   13  A    between atoms: _29  and  _32
REMARK   14  A    between atoms: _32  and  _33
REMARK   15  A    between atoms: _36  and  _38
REMARK   16  A    between atoms: _38  and  _39
REMARK   17  A    between atoms: _38  and  _41
REMARK   18  A    between atoms: _41  and  _42
REMARK   19  A    between atoms: _45  and  _47
REMARK   20  A    between atoms: _47  and  _48
REMARK   21  A    between atoms: _47  and  _50
REMARK   22  A    between atoms: _50  and  _51
REMARK   23  A    between atoms: _54  and  _56
REMARK   24  A    between atoms: _56  and  _57
REMARK   25  A    between atoms: _56  and  _59
REMARK   26  A    between atoms: _59  and  _60
REMARK   27  A    between atoms: _65  and  _67
REMARK   28  A    between atoms: _67  and  _68
REMARK   29  A    between atoms: _67  and  _70
REMARK   30  A    between atoms: _70  and  _71
REMARK   31  A    between atoms: _73  and  _75
REMARK   32  A    between atoms: _75  and  _76
REMARK   33  A    between atoms: _75  and  _78
REMARK   34  A    between atoms: _78  and  _79
REMARK   35  A    between atoms: _84  and  _85
REMARK   36  A    between atoms: _87  and  _89
REMARK   37  A    between atoms: _89  and  _90
REMARK   38  A    between atoms: _93  and  _95
REMARK   39  A    between atoms: _95  and  _96
REMARK   40  A    between atoms: _95  and  _98
REMARK   41  A    between atoms: _98  and  _99
REMARK   42  A    between atoms: _99  and  _100
REMARK   43  A    between atoms: _100  and  _101
REMARK   44  A    between atoms: _101  and  _102
REMARK   45  A    between atoms: _106  and  _108
REMARK   46  A    between atoms: _108  and  _109
REMARK   47  A    between atoms: _108  and  _111
REMARK   48  A    between atoms: _111  and  _112
REMARK   49  A    between atoms: _115  and  _117
REMARK   50  A    between atoms: _117  and  _118
REMARK   51  A    between atoms: _117  and  _120
REMARK   52  A    between atoms: _120  and  _121
REMARK   53  A    between atoms: _123  and  _125
REMARK   54  A    between atoms: _125  and  _126
REMARK   55  A    between atoms: _125  and  _128
REMARK   56  A    between atoms: _128  and  _129
REMARK   57  A    between atoms: _129  and  _239
REMARK   58  A    between atoms: _130  and  _132
REMARK   59  A    between atoms: _132  and  _133
REMARK   60  A    between atoms: _132  and  _135
REMARK   61  A    between atoms: _135  and  _136
REMARK   62  A    between atoms: _136  and  _137
REMARK   63  A    between atoms: _142  and  _144
REMARK   64  A    between atoms: _144  and  _145
REMARK   65  A    between atoms: _147  and  _149
REMARK   66  A    between atoms: _149  and  _150
REMARK   67  A    between atoms: _149  and  _152
REMARK   68  A    between atoms: _152  and  _153
REMARK   69  A    between atoms: _156  and  _158
REMARK   70  A    between atoms: _158  and  _159
REMARK   71  A    between atoms: _158  and  _161
REMARK   72  A    between atoms: _161  and  _162
REMARK   73  A    between atoms: _164  and  _166
REMARK   74  A    between atoms: _166  and  _167
REMARK   75  A    between atoms: _169  and  _171
REMARK   76  A    between atoms: _171  and  _172
REMARK   77  A    between atoms: _174  and  _176
REMARK   78  A    between atoms: _176  and  _177
REMARK   79  A    between atoms: _176  and  _179
REMARK   80  A    between atoms: _179  and  _180
REMARK   81  A    between atoms: _183  and  _185
REMARK   82  A    between atoms: _185  and  _186
REMARK   83  A    between atoms: _185  and  _188
REMARK   84  A    between atoms: _191  and  _193
REMARK   85  A    between atoms: _193  and  _194
REMARK   86  A    between atoms: _193  and  _196
REMARK   87  A    between atoms: _196  and  _197
REMARK   88  A    between atoms: _199  and  _201
REMARK   89  A    between atoms: _201  and  _202
REMARK   90  A    between atoms: _201  and  _204
REMARK   91  A    between atoms: _204  and  _205
REMARK   92  A    between atoms: _215  and  _217
REMARK   93  A    between atoms: _217  and  _218
REMARK   94  A    between atoms: _220  and  _222
REMARK   95  A    between atoms: _222  and  _223
REMARK   96  A    between atoms: _222  and  _225
REMARK   97  A    between atoms: _225  and  _226
REMARK   98  A    between atoms: _228  and  _230
REMARK   99  A    between atoms: _230  and  _231
REMARK  100  A    between atoms: _233  and  _235
REMARK  101  A    between atoms: _235  and  _236
REMARK  102  A    between atoms: _235  and  _238
REMARK  103  A    between atoms: _238  and  _239
REMARK  104  A    between atoms: _240  and  _242
REMARK  105  A    between atoms: _242  and  _243
REMARK  106  A    between atoms: _246  and  _248
REMARK  107  A    between atoms: _248  and  _249
REMARK  108  A    between atoms: _248  and  _251
REMARK  109  A    between atoms: _251  and  _252
REMARK  110  A    between atoms: _252  and  _253
REMARK  111  A    between atoms: _258  and  _260
REMARK  112  A    between atoms: _260  and  _261
REMARK  113  A    between atoms: _260  and  _263
REMARK  114  A    between atoms: _263  and  _264
REMARK  115  A    between atoms: _264  and  _265
REMARK  116  A    between atoms: _265  and  _266
REMARK  117  A    between atoms: _266  and  _267
REMARK  118  A    between atoms: _272  and  _273
REMARK  119  A    between atoms: _278  and  _280
REMARK  120  A    between atoms: _280  and  _281
REMARK  121  A    between atoms: _283  and  _285
REMARK  122  A    between atoms: _285  and  _286
REMARK  123  A    between atoms: _285  and  _288
REMARK  124  A    between atoms: _291  and  _293
REMARK  125  A    between atoms: _293  and  _294
REMARK  126  A    between atoms: _293  and  _296
REMARK  127  A    between atoms: _296  and  _297
REMARK  128  A    between atoms: _302  and  _303
REMARK                            x       y       z     vdW  Elec       q    Type
REMARK                         _______ _______ _______ _____ _____    ______ ____
ROOT
ATOM      1  O   HOH     1      46.728  -2.751  19.819  0.00  0.00    +0.000 OA
ENDROOT
TORSDOF 0
REMARK  Name = ../refined-set-2016/1c5q/1c5q_pocket.pdb
REMARK  128 active torsions:
REMARK  status: ('A' for Active; 'I' for Inactive)
REMARK    1  A    between atoms: _1  and  _3
REMARK    2  A    between atoms: _3  and  _4
REMARK    3  A    between atoms: _3  and  _6
REMARK    4  A    between atoms: _9  and  _11
REMARK    5  A    between atoms: _11  and  _12
REMARK    6  A    between atoms: _11  and  _14
REMARK    7  A    between atoms: _16  and  _18
REMARK    8  A    between atoms: _18  and  _19
REMARK    9  A    between atoms: _18  and  _21
REMARK   10  A    between atoms: _21  and  _22
REMARK   11  A    between atoms: _27  and  _29
REMARK   12  A    between atoms: _29  and  _30
REMARK   13  A    between atoms: _29  and  _32
REMARK   14  A    between atoms: _32  and  _33
REMARK   15  A    between atoms: _36  and  _38
REMARK   16  A    between atoms: _38  and  _39
REMARK   17  A    between atoms: _38  and  _41
REMARK   18  A    between atoms: _41  and  _42
REMARK   19  A    between atoms: _45  and  _47
REMARK   20  A    between atoms: _47  and  _48
REMARK   21  A    between atoms: _47  and  _50
REMARK   22  A    between atoms: _50  and  _51
REMARK   23  A    between atoms: _54  and  _56
REMARK   24  A    between atoms: _56  and  _57
REMARK   25  A    between atoms: _56  and  _59
REMARK   26  A    between atoms: _59  and  _60
REMARK   27  A    between atoms: _65  and  _67
REMARK   28  A    between atoms: _67  and  _68
REMARK   29  A    between atoms: _67  and  _70
REMARK   30  A    between atoms: _70  and  _71
REMARK   31  A    between atoms: _73  and  _75
REMARK   32  A    between atoms: _75  and  _76
REMARK   33  A    between atoms: _75  and  _78
REMARK   34  A    between atoms: _78  and  _79
REMARK   35  A    between atoms: _84  and  _85
REMARK   36  A    between atoms: _87  and  _89
REMARK   37  A    between atoms: _89  and  _90
REMARK   38  A    between atoms: _93  and  _95
REMARK   39  A    between atoms: _95  and  _96
REMARK   40  A    between atoms: _95  and  _98
REMARK   41  A    between atoms: _98  and  _99
REMARK   42  A    between atoms: _99  and  _100
REMARK   43  A    between atoms: _100  and  _101
REMARK   44  A    between atoms: _101  and  _102
REMARK   45  A    between atoms: _106  and  _108
REMARK   46  A    between atoms: _108  and  _109
REMARK   47  A    between atoms: _108  and  _111
REMARK   48  A    between atoms: _111  and  _112
REMARK   49  A    between atoms: _115  and  _117
REMARK   50  A    between atoms: _117  and  _118
REMARK   51  A    between atoms: _117  and  _120
REMARK   52  A    between atoms: _120  and  _121
REMARK   53  A    between atoms: _123  and  _125
REMARK   54  A    between atoms: _125  and  _126
REMARK   55  A    between atoms: _125  and  _128
REMARK   56  A    between atoms: _128  and  _129
REMARK   57  A    between atoms: _129  and  _239
REMARK   58  A    between atoms: _130  and  _132
REMARK   59  A    between atoms: _132  and  _133
REMARK   60  A    between atoms: _132  and  _135
REMARK   61  A    between atoms: _135  and  _136
REMARK   62  A    between atoms: _136  and  _137
REMARK   63  A    between atoms: _142  and  _144
REMARK   64  A    between atoms: _144  and  _145
REMARK   65  A    between atoms: _147  and  _149
REMARK   66  A    between atoms: _149  and  _150
REMARK   67  A    between atoms: _149  and  _152
REMARK   68  A    between atoms: _152  and  _153
REMARK   69  A    between atoms: _156  and  _158
REMARK   70  A    between atoms: _158  and  _159
REMARK   71  A    between atoms: _158  and  _161
REMARK   72  A    between atoms: _161  and  _162
REMARK   73  A    between atoms: _164  and  _166
REMARK   74  A    between atoms: _166  and  _167
REMARK   75  A    between atoms: _169  and  _171
REMARK   76  A    between atoms: _171  and  _172
REMARK   77  A    between atoms: _174  and  _176
REMARK   78  A    between atoms: _176  and  _177
REMARK   79  A    between atoms: _176  and  _179
REMARK   80  A    between atoms: _179  and  _180
REMARK   81  A    between atoms: _183  and  _185
REMARK   82  A    between atoms: _185  and  _186
REMARK   83  A    between atoms: _185  and  _188
REMARK   84  A    between atoms: _191  and  _193
REMARK   85  A    between atoms: _193  and  _194
REMARK   86  A    between atoms: _193  and  _196
REMARK   87  A    between atoms: _196  and  _197
REMARK   88  A    between atoms: _199  and  _201
REMARK   89  A    between atoms: _201  and  _202
REMARK   90  A    between atoms: _201  and  _204
REMARK   91  A    between atoms: _204  and  _205
REMARK   92  A    between atoms: _215  and  _217
REMARK   93  A    between atoms: _217  and  _218
REMARK   94  A    between atoms: _220  and  _222
REMARK   95  A    between atoms: _222  and  _223
REMARK   96  A    between atoms: _222  and  _225
REMARK   97  A    between atoms: _225  and  _226
REMARK   98  A    between atoms: _228  and  _230
REMARK   99  A    between atoms: _230  and  _231
REMARK  100  A    between atoms: _233  and  _235
REMARK  101  A    between atoms: _235  and  _236
REMARK  102  A    between atoms: _235  and  _238
REMARK  103  A    between atoms: _238  and  _239
REMARK  104  A    between atoms: _240  and  _242
REMARK  105  A    between atoms: _242  and  _243
REMARK  106  A    between atoms: _246  and  _248
REMARK  107  A    between atoms: _248  and  _249
REMARK  108  A    between atoms: _248  and  _251
REMARK  109  A    between atoms: _251  and  _252
REMARK  110  A    between atoms: _252  and  _253
REMARK  111  A    between atoms: _258  and  _260
REMARK  112  A    between atoms: _260  and  _261
REMARK  113  A    between atoms: _260  and  _263
REMARK  114  A    between atoms: _263  and  _264
REMARK  115  A    between atoms: _264  and  _265
REMARK  116  A    between atoms: _265  and  _266
REMARK  117  A    between atoms: _266  and  _267
REMARK  118  A    between atoms: _272  and  _273
REMARK  119  A    between atoms: _278  and  _280
REMARK  120  A    between atoms: _280  and  _281
REMARK  121  A    between atoms: _283  and  _285
REMARK  122  A    between atoms: _285  and  _286
REMARK  123  A    between atoms: _285  and  _288
REMARK  124  A    between atoms: _291  and  _293
REMARK  125  A    between atoms: _293  and  _294
REMARK  126  A    between atoms: _293  and  _296
REMARK  127  A    between atoms: _296  and  _297
REMARK  128  A    between atoms: _302  and  _303
REMARK                            x       y       z     vdW  Elec       q    Type
REMARK                         _______ _______ _______ _____ _____    ______ ____
ROOT
ATOM      1  O   HOH     1      43.870  -0.045  23.712  0.00  0.00    +0.000 OA
ENDROOT
TORSDOF 0
REMARK  Name = ../refined-set-2016/1c5q/1c5q_pocket.pdb
REMARK  128 active torsions:
REMARK  status: ('A' for Active; 'I' for Inactive)
REMARK    1  A    between atoms: _1  and  _3
REMARK    2  A    between atoms: _3  and  _4
REMARK    3  A    between atoms: _3  and  _6
REMARK    4  A    between atoms: _9  and  _11
REMARK    5  A    between atoms: _11  and  _12
REMARK    6  A    between atoms: _11  and  _14
REMARK    7  A    between atoms: _16  and  _18
REMARK    8  A    between atoms: _18  and  _19
REMARK    9  A    between atoms: _18  and  _21
REMARK   10  A    between atoms: _21  and  _22
REMARK   11  A    between atoms: _27  and  _29
REMARK   12  A    between atoms: _29  and  _30
REMARK   13  A    between atoms: _29  and  _32
REMARK   14  A    between atoms: _32  and  _33
REMARK   15  A    between atoms: _36  and  _38
REMARK   16  A    between atoms: _38  and  _39
REMARK   17  A    between atoms: _38  and  _41
REMARK   18  A    between atoms: _41  and  _42
REMARK   19  A    between atoms: _45  and  _47
REMARK   20  A    between atoms: _47  and  _48
REMARK   21  A    between atoms: _47  and  _50
REMARK   22  A    between atoms: _50  and  _51
REMARK   23  A    between atoms: _54  and  _56
REMARK   24  A    between atoms: _56  and  _57
REMARK   25  A    between atoms: _56  and  _59
REMARK   26  A    between atoms: _59  and  _60
REMARK   27  A    between atoms: _65  and  _67
REMARK   28  A    between atoms: _67  and  _68
REMARK   29  A    between atoms: _67  and  _70
REMARK   30  A    between atoms: _70  and  _71
REMARK   31  A    between atoms: _73  and  _75
REMARK   32  A    between atoms: _75  and  _76
REMARK   33  A    between atoms: _75  and  _78
REMARK   34  A    between atoms: _78  and  _79
REMARK   35  A    between atoms: _84  and  _85
REMARK   36  A    between atoms: _87  and  _89
REMARK   37  A    between atoms: _89  and  _90
REMARK   38  A    between atoms: _93  and  _95
REMARK   39  A    between atoms: _95  and  _96
REMARK   40  A    between atoms: _95  and  _98
REMARK   41  A    between atoms: _98  and  _99
REMARK   42  A    between atoms: _99  and  _100
REMARK   43  A    between atoms: _100  and  _101
REMARK   44  A    between atoms: _101  and  _102
REMARK   45  A    between atoms: _106  and  _108
REMARK   46  A    between atoms: _108  and  _109
REMARK   47  A    between atoms: _108  and  _111
REMARK   48  A    between atoms: _111  and  _112
REMARK   49  A    between atoms: _115  and  _117
REMARK   50  A    between atoms: _117  and  _118
REMARK   51  A    between atoms: _117  and  _120
REMARK   52  A    between atoms: _120  and  _121
REMARK   53  A    between atoms: _123  and  _125
REMARK   54  A    between atoms: _125  and  _126
REMARK   55  A    between atoms: _125  and  _128
REMARK   56  A    between atoms: _128  and  _129
REMARK   57  A    between atoms: _129  and  _239
REMARK   58  A    between atoms: _130  and  _132
REMARK   59  A    between atoms: _132  and  _133
REMARK   60  A    between atoms: _132  and  _135
REMARK   61  A    between atoms: _135  and  _136
REMARK   62  A    between atoms: _136  and  _137
REMARK   63  A    between atoms: _142  and  _144
REMARK   64  A    between atoms: _144  and  _145
REMARK   65  A    between atoms: _147  and  _149
REMARK   66  A    between atoms: _149  and  _150
REMARK   67  A    between atoms: _149  and  _152
REMARK   68  A    between atoms: _152  and  _153
REMARK   69  A    between atoms: _156  and  _158
REMARK   70  A    between atoms: _158  and  _159
REMARK   71  A    between atoms: _158  and  _161
REMARK   72  A    between atoms: _161  and  _162
REMARK   73  A    between atoms: _164  and  _166
REMARK   74  A    between atoms: _166  and  _167
REMARK   75  A    between atoms: _169  and  _171
REMARK   76  A    between atoms: _171  and  _172
REMARK   77  A    between atoms: _174  and  _176
REMARK   78  A    between atoms: _176  and  _177
REMARK   79  A    between atoms: _176  and  _179
REMARK   80  A    between atoms: _179  and  _180
REMARK   81  A    between atoms: _183  and  _185
REMARK   82  A    between atoms: _185  and  _186
REMARK   83  A    between atoms: _185  and  _188
REMARK   84  A    between atoms: _191  and  _193
REMARK   85  A    between atoms: _193  and  _194
REMARK   86  A    between atoms: _193  and  _196
REMARK   87  A    between atoms: _196  and  _197
REMARK   88  A    between atoms: _199  and  _201
REMARK   89  A    between atoms: _201  and  _202
REMARK   90  A    between atoms: _201  and  _204
REMARK   91  A    between atoms: _204  and  _205
REMARK   92  A    between atoms: _215  and  _217
REMARK   93  A    between atoms: _217  and  _218
REMARK   94  A    between atoms: _220  and  _222
REMARK   95  A    between atoms: _222  and  _223
REMARK   96  A    between atoms: _222  and  _225
REMARK   97  A    between atoms: _225  and  _226
REMARK   98  A    between atoms: _228  and  _230
REMARK   99  A    between atoms: _230  and  _231
REMARK  100  A    between atoms: _233  and  _235
REMARK  101  A    between atoms: _235  and  _236
REMARK  102  A    between atoms: _235  and  _238
REMARK  103  A    between atoms: _238  and  _239
REMARK  104  A    between atoms: _240  and  _242
REMARK  105  A    between atoms: _242  and  _243
REMARK  106  A    between atoms: _246  and  _248
REMARK  107  A    between atoms: _248  and  _249
REMARK  108  A    between atoms: _248  and  _251
REMARK  109  A    between atoms: _251  and  _252
REMARK  110  A    between atoms: _252  and  _253
REMARK  111  A    between atoms: _258  and  _260
REMARK  112  A    between atoms: _260  and  _261
REMARK  113  A    between atoms: _260  and  _263
REMARK  114  A    between atoms: _263  and  _264
REMARK  115  A    between atoms: _264  and  _265
REMARK  116  A    between atoms: _265  and  _266
REMARK  117  A    between atoms: _266  and  _267
REMARK  118  A    between atoms: _272  and  _273
REMARK  119  A    between atoms: _278  and  _280
REMARK  120  A    between atoms: _280  and  _281
REMARK  121  A    between atoms: _283  and  _285
REMARK  122  A    between atoms: _285  and  _286
REMARK  123  A    between atoms: _285  and  _288
REMARK  124  A    between atoms: _291  and  _293
REMARK  125  A    between atoms: _293  and  _294
REMARK  126  A    between atoms: _293  and  _296
REMARK  127  A    between atoms: _296  and  _297
REMARK  128  A    between atoms: _302  and  _303
REMARK                            x       y       z     vdW  Elec       q    Type
REMARK                         _______ _______ _______ _____ _____    ______ ____
ROOT
ATOM      1  O   HOH     1      43.114  -8.683  23.511  0.00  0.00    +0.000 OA
ENDROOT
TORSDOF 0
REMARK  Name = ../refined-set-2016/1c5q/1c5q_pocket.pdb
REMARK  128 active torsions:
REMARK  status: ('A' for Active; 'I' for Inactive)
REMARK    1  A    between atoms: _1  and  _3
REMARK    2  A    between atoms: _3  and  _4
REMARK    3  A    between atoms: _3  and  _6
REMARK    4  A    between atoms: _9  and  _11
REMARK    5  A    between atoms: _11  and  _12
REMARK    6  A    between atoms: _11  and  _14
REMARK    7  A    between atoms: _16  and  _18
REMARK    8  A    between atoms: _18  and  _19
REMARK    9  A    between atoms: _18  and  _21
REMARK   10  A    between atoms: _21  and  _22
REMARK   11  A    between atoms: _27  and  _29
REMARK   12  A    between atoms: _29  and  _30
REMARK   13  A    between atoms: _29  and  _32
REMARK   14  A    between atoms: _32  and  _33
REMARK   15  A    between atoms: _36  and  _38
REMARK   16  A    between atoms: _38  and  _39
REMARK   17  A    between atoms: _38  and  _41
REMARK   18  A    between atoms: _41  and  _42
REMARK   19  A    between atoms: _45  and  _47
REMARK   20  A    between atoms: _47  and  _48
REMARK   21  A    between atoms: _47  and  _50
REMARK   22  A    between atoms: _50  and  _51
REMARK   23  A    between atoms: _54  and  _56
REMARK   24  A    between atoms: _56  and  _57
REMARK   25  A    between atoms: _56  and  _59
REMARK   26  A    between atoms: _59  and  _60
REMARK   27  A    between atoms: _65  and  _67
REMARK   28  A    between atoms: _67  and  _68
REMARK   29  A    between atoms: _67  and  _70
REMARK   30  A    between atoms: _70  and  _71
REMARK   31  A    between atoms: _73  and  _75
REMARK   32  A    between atoms: _75  and  _76
REMARK   33  A    between atoms: _75  and  _78
REMARK   34  A    between atoms: _78  and  _79
REMARK   35  A    between atoms: _84  and  _85
REMARK   36  A    between atoms: _87  and  _89
REMARK   37  A    between atoms: _89  and  _90
REMARK   38  A    between atoms: _93  and  _95
REMARK   39  A    between atoms: _95  and  _96
REMARK   40  A    between atoms: _95  and  _98
REMARK   41  A    between atoms: _98  and  _99
REMARK   42  A    between atoms: _99  and  _100
REMARK   43  A    between atoms: _100  and  _101
REMARK   44  A    between atoms: _101  and  _102
REMARK   45  A    between atoms: _106  and  _108
REMARK   46  A    between atoms: _108  and  _109
REMARK   47  A    between atoms: _108  and  _111
REMARK   48  A    between atoms: _111  and  _112
REMARK   49  A    between atoms: _115  and  _117
REMARK   50  A    between atoms: _117  and  _118
REMARK   51  A    between atoms: _117  and  _120
REMARK   52  A    between atoms: _120  and  _121
REMARK   53  A    between atoms: _123  and  _125
REMARK   54  A    between atoms: _125  and  _126
REMARK   55  A    between atoms: _125  and  _128
REMARK   56  A    between atoms: _128  and  _129
REMARK   57  A    between atoms: _129  and  _239
REMARK   58  A    between atoms: _130  and  _132
REMARK   59  A    between atoms: _132  and  _133
REMARK   60  A    between atoms: _132  and  _135
REMARK   61  A    between atoms: _135  and  _136
REMARK   62  A    between atoms: _136  and  _137
REMARK   63  A    between atoms: _142  and  _144
REMARK   64  A    between atoms: _144  and  _145
REMARK   65  A    between atoms: _147  and  _149
REMARK   66  A    between atoms: _149  and  _150
REMARK   67  A    between atoms: _149  and  _152
REMARK   68  A    between atoms: _152  and  _153
REMARK   69  A    between atoms: _156  and  _158
REMARK   70  A    between atoms: _158  and  _159
REMARK   71  A    between atoms: _158  and  _161
REMARK   72  A    between atoms: _161  and  _162
REMARK   73  A    between atoms: _164  and  _166
REMARK   74  A    between atoms: _166  and  _167
REMARK   75  A    between atoms: _169  and  _171
REMARK   76  A    between atoms: _171  and  _172
REMARK   77  A    between atoms: _174  and  _176
REMARK   78  A    between atoms: _176  and  _177
REMARK   79  A    between atoms: _176  and  _179
REMARK   80  A    between atoms: _179  and  _180
REMARK   81  A    between atoms: _183  and  _185
REMARK   82  A    between atoms: _185  and  _186
REMARK   83  A    between atoms: _185  and  _188
REMARK   84  A    between atoms: _191  and  _193
REMARK   85  A    between atoms: _193  and  _194
REMARK   86  A    between atoms: _193  and  _196
REMARK   87  A    between atoms: _196  and  _197
REMARK   88  A    between atoms: _199  and  _201
REMARK   89  A    between atoms: _201  and  _202
REMARK   90  A    between atoms: _201  and  _204
REMARK   91  A    between atoms: _204  and  _205
REMARK   92  A    between atoms: _215  and  _217
REMARK   93  A    between atoms: _217  and  _218
REMARK   94  A    between atoms: _220  and  _222
REMARK   95  A    between atoms: _222  and  _223
REMARK   96  A    between atoms: _222  and  _225
REMARK   97  A    between atoms: _225  and  _226
REMARK   98  A    between atoms: _228  and  _230
REMARK   99  A    between atoms: _230  and  _231
REMARK  100  A    between atoms: _233  and  _235
REMARK  101  A    between atoms: _235  and  _236
REMARK  102  A    between atoms: _235  and  _238
REMARK  103  A    between atoms: _238  and  _239
REMARK  104  A    between atoms: _240  and  _242
REMARK  105  A    between atoms: _242  and  _243
REMARK  106  A    between atoms: _246  and  _248
REMARK  107  A    between atoms: _248  and  _249
REMARK  108  A    between atoms: _248  and  _251
REMARK  109  A    between atoms: _251  and  _252
REMARK  110  A    between atoms: _252  and  _253
REMARK  111  A    between atoms: _258  and  _260
REMARK  112  A    between atoms: _260  and  _261
REMARK  113  A    between atoms: _260  and  _263
REMARK  114  A    between atoms: _263  and  _264
REMARK  115  A    between atoms: _264  and  _265
REMARK  116  A    between atoms: _265  and  _266
REMARK  117  A    between atoms: _266  and  _267
REMARK  118  A    between atoms: _272  and  _273
REMARK  119  A    between atoms: _278  and  _280
REMARK  120  A    between atoms: _280  and  _281
REMARK  121  A    between atoms: _283  and  _285
REMARK  122  A    between atoms: _285  and  _286
REMARK  123  A    between atoms: _285  and  _288
REMARK  124  A    between atoms: _291  and  _293
REMARK  125  A    between atoms: _293  and  _294
REMARK  126  A    between atoms: _293  and  _296
REMARK  127  A    between atoms: _296  and  _297
REMARK  128  A    between atoms: _302  and  _303
REMARK                            x       y       z     vdW  Elec       q    Type
REMARK                         _______ _______ _______ _____ _____    ______ ____
ROOT
ATOM      1  O   HOH     1      44.723 -11.528  28.403  0.00  0.00    +0.000 OA
ENDROOT
TORSDOF 0
REMARK  Name = ../refined-set-2016/1c5q/1c5q_pocket.pdb
REMARK  128 active torsions:
REMARK  status: ('A' for Active; 'I' for Inactive)
REMARK    1  A    between atoms: _1  and  _3
REMARK    2  A    between atoms: _3  and  _4
REMARK    3  A    between atoms: _3  and  _6
REMARK    4  A    between atoms: _9  and  _11
REMARK    5  A    between atoms: _11  and  _12
REMARK    6  A    between atoms: _11  and  _14
REMARK    7  A    between atoms: _16  and  _18
REMARK    8  A    between atoms: _18  and  _19
REMARK    9  A    between atoms: _18  and  _21
REMARK   10  A    between atoms: _21  and  _22
REMARK   11  A    between atoms: _27  and  _29
REMARK   12  A    between atoms: _29  and  _30
REMARK   13  A    between atoms: _29  and  _32
REMARK   14  A    between atoms: _32  and  _33
REMARK   15  A    between atoms: _36  and  _38
REMARK   16  A    between atoms: _38  and  _39
REMARK   17  A    between atoms: _38  and  _41
REMARK   18  A    between atoms: _41  and  _42
REMARK   19  A    between atoms: _45  and  _47
REMARK   20  A    between atoms: _47  and  _48
REMARK   21  A    between atoms: _47  and  _50
REMARK   22  A    between atoms: _50  and  _51
REMARK   23  A    between atoms: _54  and  _56
REMARK   24  A    between atoms: _56  and  _57
REMARK   25  A    between atoms: _56  and  _59
REMARK   26  A    between atoms: _59  and  _60
REMARK   27  A    between atoms: _65  and  _67
REMARK   28  A    between atoms: _67  and  _68
REMARK   29  A    between atoms: _67  and  _70
REMARK   30  A    between atoms: _70  and  _71
REMARK   31  A    between atoms: _73  and  _75
REMARK   32  A    between atoms: _75  and  _76
REMARK   33  A    between atoms: _75  and  _78
REMARK   34  A    between atoms: _78  and  _79
REMARK   35  A    between atoms: _84  and  _85
REMARK   36  A    between atoms: _87  and  _89
REMARK   37  A    between atoms: _89  and  _90
REMARK   38  A    between atoms: _93  and  _95
REMARK   39  A    between atoms: _95  and  _96
REMARK   40  A    between atoms: _95  and  _98
REMARK   41  A    between atoms: _98  and  _99
REMARK   42  A    between atoms: _99  and  _100
REMARK   43  A    between atoms: _100  and  _101
REMARK   44  A    between atoms: _101  and  _102
REMARK   45  A    between atoms: _106  and  _108
REMARK   46  A    between atoms: _108  and  _109
REMARK   47  A    between atoms: _108  and  _111
REMARK   48  A    between atoms: _111  and  _112
REMARK   49  A    between atoms: _115  and  _117
REMARK   50  A    between atoms: _117  and  _118
REMARK   51  A    between atoms: _117  and  _120
REMARK   52  A    between atoms: _120  and  _121
REMARK   53  A    between atoms: _123  and  _125
REMARK   54  A    between atoms: _125  and  _126
REMARK   55  A    between atoms: _125  and  _128
REMARK   56  A    between atoms: _128  and  _129
REMARK   57  A    between atoms: _129  and  _239
REMARK   58  A    between atoms: _130  and  _132
REMARK   59  A    between atoms: _132  and  _133
REMARK   60  A    between atoms: _132  and  _135
REMARK   61  A    between atoms: _135  and  _136
REMARK   62  A    between atoms: _136  and  _137
REMARK   63  A    between atoms: _142  and  _144
REMARK   64  A    between atoms: _144  and  _145
REMARK   65  A    between atoms: _147  and  _149
REMARK   66  A    between atoms: _149  and  _150
REMARK   67  A    between atoms: _149  and  _152
REMARK   68  A    between atoms: _152  and  _153
REMARK   69  A    between atoms: _156  and  _158
REMARK   70  A    between atoms: _158  and  _159
REMARK   71  A    between atoms: _158  and  _161
REMARK   72  A    between atoms: _161  and  _162
REMARK   73  A    between atoms: _164  and  _166
REMARK   74  A    between atoms: _166  and  _167
REMARK   75  A    between atoms: _169  and  _171
REMARK   76  A    between atoms: _171  and  _172
REMARK   77  A    between atoms: _174  and  _176
REMARK   78  A    between atoms: _176  and  _177
REMARK   79  A    between atoms: _176  and  _179
REMARK   80  A    between atoms: _179  and  _180
REMARK   81  A    between atoms: _183  and  _185
REMARK   82  A    between atoms: _185  and  _186
REMARK   83  A    between atoms: _185  and  _188
REMARK   84  A    between atoms: _191  and  _193
REMARK   85  A    between atoms: _193  and  _194
REMARK   86  A    between atoms: _193  and  _196
REMARK   87  A    between atoms: _196  and  _197
REMARK   88  A    between atoms: _199  and  _201
REMARK   89  A    between atoms: _201  and  _202
REMARK   90  A    between atoms: _201  and  _204
REMARK   91  A    between atoms: _204  and  _205
REMARK   92  A    between atoms: _215  and  _217
REMARK   93  A    between atoms: _217  and  _218
REMARK   94  A    between atoms: _220  and  _222
REMARK   95  A    between atoms: _222  and  _223
REMARK   96  A    between atoms: _222  and  _225
REMARK   97  A    between atoms: _225  and  _226
REMARK   98  A    between atoms: _228  and  _230
REMARK   99  A    between atoms: _230  and  _231
REMARK  100  A    between atoms: _233  and  _235
REMARK  101  A    between atoms: _235  and  _236
REMARK  102  A    between atoms: _235  and  _238
REMARK  103  A    between atoms: _238  and  _239
REMARK  104  A    between atoms: _240  and  _242
REMARK  105  A    between atoms: _242  and  _243
REMARK  106  A    between atoms: _246  and  _248
REMARK  107  A    between atoms: _248  and  _249
REMARK  108  A    between atoms: _248  and  _251
REMARK  109  A    between atoms: _251  and  _252
REMARK  110  A    between atoms: _252  and  _253
REMARK  111  A    between atoms: _258  and  _260
REMARK  112  A    between atoms: _260  and  _261
REMARK  113  A    between atoms: _260  and  _263
REMARK  114  A    between atoms: _263  and  _264
REMARK  115  A    between atoms: _264  and  _265
REMARK  116  A    between atoms: _265  and  _266
REMARK  117  A    between atoms: _266  and  _267
REMARK  118  A    between atoms: _272  and  _273
REMARK  119  A    between atoms: _278  and  _280
REMARK  120  A    between atoms: _280  and  _281
REMARK  121  A    between atoms: _283  and  _285
REMARK  122  A    between atoms: _285  and  _286
REMARK  123  A    between atoms: _285  and  _288
REMARK  124  A    between atoms: _291  and  _293
REMARK  125  A    between atoms: _293  and  _294
REMARK  126  A    between atoms: _293  and  _296
REMARK  127  A    between atoms: _296  and  _297
REMARK  128  A    between atoms: _302  and  _303
REMARK                            x       y       z     vdW  Elec       q    Type
REMARK                         _______ _______ _______ _____ _____    ______ ____
ROOT
ATOM      1  O   HOH     1      40.225   0.119  30.328  0.00  0.00    +0.000 OA
ENDROOT
TORSDOF 0
REMARK  Name = ../refined-set-2016/1c5q/1c5q_pocket.pdb
REMARK  128 active torsions:
REMARK  status: ('A' for Active; 'I' for Inactive)
REMARK    1  A    between atoms: _1  and  _3
REMARK    2  A    between atoms: _3  and  _4
REMARK    3  A    between atoms: _3  and  _6
REMARK    4  A    between atoms: _9  and  _11
REMARK    5  A    between atoms: _11  and  _12
REMARK    6  A    between atoms: _11  and  _14
REMARK    7  A    between atoms: _16  and  _18
REMARK    8  A    between atoms: _18  and  _19
REMARK    9  A    between atoms: _18  and  _21
REMARK   10  A    between atoms: _21  and  _22
REMARK   11  A    between atoms: _27  and  _29
REMARK   12  A    between atoms: _29  and  _30
REMARK   13  A    between atoms: _29  and  _32
REMARK   14  A    between atoms: _32  and  _33
REMARK   15  A    between atoms: _36  and  _38
REMARK   16  A    between atoms: _38  and  _39
REMARK   17  A    between atoms: _38  and  _41
REMARK   18  A    between atoms: _41  and  _42
REMARK   19  A    between atoms: _45  and  _47
REMARK   20  A    between atoms: _47  and  _48
REMARK   21  A    between atoms: _47  and  _50
REMARK   22  A    between atoms: _50  and  _51
REMARK   23  A    between atoms: _54  and  _56
REMARK   24  A    between atoms: _56  and  _57
REMARK   25  A    between atoms: _56  and  _59
REMARK   26  A    between atoms: _59  and  _60
REMARK   27  A    between atoms: _65  and  _67
REMARK   28  A    between atoms: _67  and  _68
REMARK   29  A    between atoms: _67  and  _70
REMARK   30  A    between atoms: _70  and  _71
REMARK   31  A    between atoms: _73  and  _75
REMARK   32  A    between atoms: _75  and  _76
REMARK   33  A    between atoms: _75  and  _78
REMARK   34  A    between atoms: _78  and  _79
REMARK   35  A    between atoms: _84  and  _85
REMARK   36  A    between atoms: _87  and  _89
REMARK   37  A    between atoms: _89  and  _90
REMARK   38  A    between atoms: _93  and  _95
REMARK   39  A    between atoms: _95  and  _96
REMARK   40  A    between atoms: _95  and  _98
REMARK   41  A    between atoms: _98  and  _99
REMARK   42  A    between atoms: _99  and  _100
REMARK   43  A    between atoms: _100  and  _101
REMARK   44  A    between atoms: _101  and  _102
REMARK   45  A    between atoms: _106  and  _108
REMARK   46  A    between atoms: _108  and  _109
REMARK   47  A    between atoms: _108  and  _111
REMARK   48  A    between atoms: _111  and  _112
REMARK   49  A    between atoms: _115  and  _117
REMARK   50  A    between atoms: _117  and  _118
REMARK   51  A    between atoms: _117  and  _120
REMARK   52  A    between atoms: _120  and  _121
REMARK   53  A    between atoms: _123  and  _125
REMARK   54  A    between atoms: _125  and  _126
REMARK   55  A    between atoms: _125  and  _128
REMARK   56  A    between atoms: _128  and  _129
REMARK   57  A    between atoms: _129  and  _239
REMARK   58  A    between atoms: _130  and  _132
REMARK   59  A    between atoms: _132  and  _133
REMARK   60  A    between atoms: _132  and  _135
REMARK   61  A    between atoms: _135  and  _136
REMARK   62  A    between atoms: _136  and  _137
REMARK   63  A    between atoms: _142  and  _144
REMARK   64  A    between atoms: _144  and  _145
REMARK   65  A    between atoms: _147  and  _149
REMARK   66  A    between atoms: _149  and  _150
REMARK   67  A    between atoms: _149  and  _152
REMARK   68  A    between atoms: _152  and  _153
REMARK   69  A    between atoms: _156  and  _158
REMARK   70  A    between atoms: _158  and  _159
REMARK   71  A    between atoms: _158  and  _161
REMARK   72  A    between atoms: _161  and  _162
REMARK   73  A    between atoms: _164  and  _166
REMARK   74  A    between atoms: _166  and  _167
REMARK   75  A    between atoms: _169  and  _171
REMARK   76  A    between atoms: _171  and  _172
REMARK   77  A    between atoms: _174  and  _176
REMARK   78  A    between atoms: _176  and  _177
REMARK   79  A    between atoms: _176  and  _179
REMARK   80  A    between atoms: _179  and  _180
REMARK   81  A    between atoms: _183  and  _185
REMARK   82  A    between atoms: _185  and  _186
REMARK   83  A    between atoms: _185  and  _188
REMARK   84  A    between atoms: _191  and  _193
REMARK   85  A    between atoms: _193  and  _194
REMARK   86  A    between atoms: _193  and  _196
REMARK   87  A    between atoms: _196  and  _197
REMARK   88  A    between atoms: _199  and  _201
REMARK   89  A    between atoms: _201  and  _202
REMARK   90  A    between atoms: _201  and  _204
REMARK   91  A    between atoms: _204  and  _205
REMARK   92  A    between atoms: _215  and  _217
REMARK   93  A    between atoms: _217  and  _218
REMARK   94  A    between atoms: _220  and  _222
REMARK   95  A    between atoms: _222  and  _223
REMARK   96  A    between atoms: _222  and  _225
REMARK   97  A    between atoms: _225  and  _226
REMARK   98  A    between atoms: _228  and  _230
REMARK   99  A    between atoms: _230  and  _231
REMARK  100  A    between atoms: _233  and  _235
REMARK  101  A    between atoms: _235  and  _236
REMARK  102  A    between atoms: _235  and  _238
REMARK  103  A    between atoms: _238  and  _239
REMARK  104  A    between atoms: _240  and  _242
REMARK  105  A    between atoms: _242  and  _243
REMARK  106  A    between atoms: _246  and  _248
REMARK  107  A    between atoms: _248  and  _249
REMARK  108  A    between atoms: _248  and  _251
REMARK  109  A    between atoms: _251  and  _252
REMARK  110  A    between atoms: _252  and  _253
REMARK  111  A    between atoms: _258  and  _260
REMARK  112  A    between atoms: _260  and  _261
REMARK  113  A    between atoms: _260  and  _263
REMARK  114  A    between atoms: _263  and  _264
REMARK  115  A    between atoms: _264  and  _265
REMARK  116  A    between atoms: _265  and  _266
REMARK  117  A    between atoms: _266  and  _267
REMARK  118  A    between atoms: _272  and  _273
REMARK  119  A    between atoms: _278  and  _280
REMARK  120  A    between atoms: _280  and  _281
REMARK  121  A    between atoms: _283  and  _285
REMARK  122  A    between atoms: _285  and  _286
REMARK  123  A    between atoms: _285  and  _288
REMARK  124  A    between atoms: _291  and  _293
REMARK  125  A    between atoms: _293  and  _294
REMARK  126  A    between atoms: _293  and  _296
REMARK  127  A    between atoms: _296  and  _297
REMARK  128  A    between atoms: _302  and  _303
REMARK                            x       y       z     vdW  Elec       q    Type
REMARK                         _______ _______ _______ _____ _____    ______ ____
ROOT
ATOM      1  O   HOH     1      39.745  -2.617  29.205  0.00  0.00    +0.000 OA
ENDROOT
TORSDOF 0
REMARK  Name = ../refined-set-2016/1c5q/1c5q_pocket.pdb
REMARK  128 active torsions:
REMARK  status: ('A' for Active; 'I' for Inactive)
REMARK    1  A    between atoms: _1  and  _3
REMARK    2  A    between atoms: _3  and  _4
REMARK    3  A    between atoms: _3  and  _6
REMARK    4  A    between atoms: _9  and  _11
REMARK    5  A    between atoms: _11  and  _12
REMARK    6  A    between atoms: _11  and  _14
REMARK    7  A    between atoms: _16  and  _18
REMARK    8  A    between atoms: _18  and  _19
REMARK    9  A    between atoms: _18  and  _21
REMARK   10  A    between atoms: _21  and  _22
REMARK   11  A    between atoms: _27  and  _29
REMARK   12  A    between atoms: _29  and  _30
REMARK   13  A    between atoms: _29  and  _32
REMARK   14  A    between atoms: _32  and  _33
REMARK   15  A    between atoms: _36  and  _38
REMARK   16  A    between atoms: _38  and  _39
REMARK   17  A    between atoms: _38  and  _41
REMARK   18  A    between atoms: _41  and  _42
REMARK   19  A    between atoms: _45  and  _47
REMARK   20  A    between atoms: _47  and  _48
REMARK   21  A    between atoms: _47  and  _50
REMARK   22  A    between atoms: _50  and  _51
REMARK   23  A    between atoms: _54  and  _56
REMARK   24  A    between atoms: _56  and  _57
REMARK   25  A    between atoms: _56  and  _59
REMARK   26  A    between atoms: _59  and  _60
REMARK   27  A    between atoms: _65  and  _67
REMARK   28  A    between atoms: _67  and  _68
REMARK   29  A    between atoms: _67  and  _70
REMARK   30  A    between atoms: _70  and  _71
REMARK   31  A    between atoms: _73  and  _75
REMARK   32  A    between atoms: _75  and  _76
REMARK   33  A    between atoms: _75  and  _78
REMARK   34  A    between atoms: _78  and  _79
REMARK   35  A    between atoms: _84  and  _85
REMARK   36  A    between atoms: _87  and  _89
REMARK   37  A    between atoms: _89  and  _90
REMARK   38  A    between atoms: _93  and  _95
REMARK   39  A    between atoms: _95  and  _96
REMARK   40  A    between atoms: _95  and  _98
REMARK   41  A    between atoms: _98  and  _99
REMARK   42  A    between atoms: _99  and  _100
REMARK   43  A    between atoms: _100  and  _101
REMARK   44  A    between atoms: _101  and  _102
REMARK   45  A    between atoms: _106  and  _108
REMARK   46  A    between atoms: _108  and  _109
REMARK   47  A    between atoms: _108  and  _111
REMARK   48  A    between atoms: _111  and  _112
REMARK   49  A    between atoms: _115  and  _117
REMARK   50  A    between atoms: _117  and  _118
REMARK   51  A    between atoms: _117  and  _120
REMARK   52  A    between atoms: _120  and  _121
REMARK   53  A    between atoms: _123  and  _125
REMARK   54  A    between atoms: _125  and  _126
REMARK   55  A    between atoms: _125  and  _128
REMARK   56  A    between atoms: _128  and  _129
REMARK   57  A    between atoms: _129  and  _239
REMARK   58  A    between atoms: _130  and  _132
REMARK   59  A    between atoms: _132  and  _133
REMARK   60  A    between atoms: _132  and  _135
REMARK   61  A    between atoms: _135  and  _136
REMARK   62  A    between atoms: _136  and  _137
REMARK   63  A    between atoms: _142  and  _144
REMARK   64  A    between atoms: _144  and  _145
REMARK   65  A    between atoms: _147  and  _149
REMARK   66  A    between atoms: _149  and  _150
REMARK   67  A    between atoms: _149  and  _152
REMARK   68  A    between atoms: _152  and  _153
REMARK   69  A    between atoms: _156  and  _158
REMARK   70  A    between atoms: _158  and  _159
REMARK   71  A    between atoms: _158  and  _161
REMARK   72  A    between atoms: _161  and  _162
REMARK   73  A    between atoms: _164  and  _166
REMARK   74  A    between atoms: _166  and  _167
REMARK   75  A    between atoms: _169  and  _171
REMARK   76  A    between atoms: _171  and  _172
REMARK   77  A    between atoms: _174  and  _176
REMARK   78  A    between atoms: _176  and  _177
REMARK   79  A    between atoms: _176  and  _179
REMARK   80  A    between atoms: _179  and  _180
REMARK   81  A    between atoms: _183  and  _185
REMARK   82  A    between atoms: _185  and  _186
REMARK   83  A    between atoms: _185  and  _188
REMARK   84  A    between atoms: _191  and  _193
REMARK   85  A    between atoms: _193  and  _194
REMARK   86  A    between atoms: _193  and  _196
REMARK   87  A    between atoms: _196  and  _197
REMARK   88  A    between atoms: _199  and  _201
REMARK   89  A    between atoms: _201  and  _202
REMARK   90  A    between atoms: _201  and  _204
REMARK   91  A    between atoms: _204  and  _205
REMARK   92  A    between atoms: _215  and  _217
REMARK   93  A    between atoms: _217  and  _218
REMARK   94  A    between atoms: _220  and  _222
REMARK   95  A    between atoms: _222  and  _223
REMARK   96  A    between atoms: _222  and  _225
REMARK   97  A    between atoms: _225  and  _226
REMARK   98  A    between atoms: _228  and  _230
REMARK   99  A    between atoms: _230  and  _231
REMARK  100  A    between atoms: _233  and  _235
REMARK  101  A    between atoms: _235  and  _236
REMARK  102  A    between atoms: _235  and  _238
REMARK  103  A    between atoms: _238  and  _239
REMARK  104  A    between atoms: _240  and  _242
REMARK  105  A    between atoms: _242  and  _243
REMARK  106  A    between atoms: _246  and  _248
REMARK  107  A    between atoms: _248  and  _249
REMARK  108  A    between atoms: _248  and  _251
REMARK  109  A    between atoms: _251  and  _252
REMARK  110  A    between atoms: _252  and  _253
REMARK  111  A    between atoms: _258  and  _260
REMARK  112  A    between atoms: _260  and  _261
REMARK  113  A    between atoms: _260  and  _263
REMARK  114  A    between atoms: _263  and  _264
REMARK  115  A    between atoms: _264  and  _265
REMARK  116  A    between atoms: _265  and  _266
REMARK  117  A    between atoms: _266  and  _267
REMARK  118  A    between atoms: _272  and  _273
REMARK  119  A    between atoms: _278  and  _280
REMARK  120  A    between atoms: _280  and  _281
REMARK  121  A    between atoms: _283  and  _285
REMARK  122  A    between atoms: _285  and  _286
REMARK  123  A    between atoms: _285  and  _288
REMARK  124  A    between atoms: _291  and  _293
REMARK  125  A    between atoms: _293  and  _294
REMARK  126  A    between atoms: _293  and  _296
REMARK  127  A    between atoms: _296  and  _297
REMARK  128  A    between atoms: _302  and  _303
REMARK                            x       y       z     vdW  Elec       q    Type
REMARK                         _______ _______ _______ _____ _____    ______ ____
ROOT
ATOM      1  O   HOH     1      39.311  -1.404  36.718  0.00  0.00    +0.000 OA
ENDROOT
TORSDOF 0
REMARK  Name = ../refined-set-2016/1c5q/1c5q_pocket.pdb
REMARK  128 active torsions:
REMARK  status: ('A' for Active; 'I' for Inactive)
REMARK    1  A    between atoms: _1  and  _3
REMARK    2  A    between atoms: _3  and  _4
REMARK    3  A    between atoms: _3  and  _6
REMARK    4  A    between atoms: _9  and  _11
REMARK    5  A    between atoms: _11  and  _12
REMARK    6  A    between atoms: _11  and  _14
REMARK    7  A    between atoms: _16  and  _18
REMARK    8  A    between atoms: _18  and  _19
REMARK    9  A    between atoms: _18  and  _21
REMARK   10  A    between atoms: _21  and  _22
REMARK   11  A    between atoms: _27  and  _29
REMARK   12  A    between atoms: _29  and  _30
REMARK   13  A    between atoms: _29  and  _32
REMARK   14  A    between atoms: _32  and  _33
REMARK   15  A    between atoms: _36  and  _38
REMARK   16  A    between atoms: _38  and  _39
REMARK   17  A    between atoms: _38  and  _41
REMARK   18  A    between atoms: _41  and  _42
REMARK   19  A    between atoms: _45  and  _47
REMARK   20  A    between atoms: _47  and  _48
REMARK   21  A    between atoms: _47  and  _50
REMARK   22  A    between atoms: _50  and  _51
REMARK   23  A    between atoms: _54  and  _56
REMARK   24  A    between atoms: _56  and  _57
REMARK   25  A    between atoms: _56  and  _59
REMARK   26  A    between atoms: _59  and  _60
REMARK   27  A    between atoms: _65  and  _67
REMARK   28  A    between atoms: _67  and  _68
REMARK   29  A    between atoms: _67  and  _70
REMARK   30  A    between atoms: _70  and  _71
REMARK   31  A    between atoms: _73  and  _75
REMARK   32  A    between atoms: _75  and  _76
REMARK   33  A    between atoms: _75  and  _78
REMARK   34  A    between atoms: _78  and  _79
REMARK   35  A    between atoms: _84  and  _85
REMARK   36  A    between atoms: _87  and  _89
REMARK   37  A    between atoms: _89  and  _90
REMARK   38  A    between atoms: _93  and  _95
REMARK   39  A    between atoms: _95  and  _96
REMARK   40  A    between atoms: _95  and  _98
REMARK   41  A    between atoms: _98  and  _99
REMARK   42  A    between atoms: _99  and  _100
REMARK   43  A    between atoms: _100  and  _101
REMARK   44  A    between atoms: _101  and  _102
REMARK   45  A    between atoms: _106  and  _108
REMARK   46  A    between atoms: _108  and  _109
REMARK   47  A    between atoms: _108  and  _111
REMARK   48  A    between atoms: _111  and  _112
REMARK   49  A    between atoms: _115  and  _117
REMARK   50  A    between atoms: _117  and  _118
REMARK   51  A    between atoms: _117  and  _120
REMARK   52  A    between atoms: _120  and  _121
REMARK   53  A    between atoms: _123  and  _125
REMARK   54  A    between atoms: _125  and  _126
REMARK   55  A    between atoms: _125  and  _128
REMARK   56  A    between atoms: _128  and  _129
REMARK   57  A    between atoms: _129  and  _239
REMARK   58  A    between atoms: _130  and  _132
REMARK   59  A    between atoms: _132  and  _133
REMARK   60  A    between atoms: _132  and  _135
REMARK   61  A    between atoms: _135  and  _136
REMARK   62  A    between atoms: _136  and  _137
REMARK   63  A    between atoms: _142  and  _144
REMARK   64  A    between atoms: _144  and  _145
REMARK   65  A    between atoms: _147  and  _149
REMARK   66  A    between atoms: _149  and  _150
REMARK   67  A    between atoms: _149  and  _152
REMARK   68  A    between atoms: _152  and  _153
REMARK   69  A    between atoms: _156  and  _158
REMARK   70  A    between atoms: _158  and  _159
REMARK   71  A    between atoms: _158  and  _161
REMARK   72  A    between atoms: _161  and  _162
REMARK   73  A    between atoms: _164  and  _166
REMARK   74  A    between atoms: _166  and  _167
REMARK   75  A    between atoms: _169  and  _171
REMARK   76  A    between atoms: _171  and  _172
REMARK   77  A    between atoms: _174  and  _176
REMARK   78  A    between atoms: _176  and  _177
REMARK   79  A    between atoms: _176  and  _179
REMARK   80  A    between atoms: _179  and  _180
REMARK   81  A    between atoms: _183  and  _185
REMARK   82  A    between atoms: _185  and  _186
REMARK   83  A    between atoms: _185  and  _188
REMARK   84  A    between atoms: _191  and  _193
REMARK   85  A    between atoms: _193  and  _194
REMARK   86  A    between atoms: _193  and  _196
REMARK   87  A    between atoms: _196  and  _197
REMARK   88  A    between atoms: _199  and  _201
REMARK   89  A    between atoms: _201  and  _202
REMARK   90  A    between atoms: _201  and  _204
REMARK   91  A    between atoms: _204  and  _205
REMARK   92  A    between atoms: _215  and  _217
REMARK   93  A    between atoms: _217  and  _218
REMARK   94  A    between atoms: _220  and  _222
REMARK   95  A    between atoms: _222  and  _223
REMARK   96  A    between atoms: _222  and  _225
REMARK   97  A    between atoms: _225  and  _226
REMARK   98  A    between atoms: _228  and  _230
REMARK   99  A    between atoms: _230  and  _231
REMARK  100  A    between atoms: _233  and  _235
REMARK  101  A    between atoms: _235  and  _236
REMARK  102  A    between atoms: _235  and  _238
REMARK  103  A    between atoms: _238  and  _239
REMARK  104  A    between atoms: _240  and  _242
REMARK  105  A    between atoms: _242  and  _243
REMARK  106  A    between atoms: _246  and  _248
REMARK  107  A    between atoms: _248  and  _249
REMARK  108  A    between atoms: _248  and  _251
REMARK  109  A    between atoms: _251  and  _252
REMARK  110  A    between atoms: _252  and  _253
REMARK  111  A    between atoms: _258  and  _260
REMARK  112  A    between atoms: _260  and  _261
REMARK  113  A    between atoms: _260  and  _263
REMARK  114  A    between atoms: _263  and  _264
REMARK  115  A    between atoms: _264  and  _265
REMARK  116  A    between atoms: _265  and  _266
REMARK  117  A    between atoms: _266  and  _267
REMARK  118  A    between atoms: _272  and  _273
REMARK  119  A    between atoms: _278  and  _280
REMARK  120  A    between atoms: _280  and  _281
REMARK  121  A    between atoms: _283  and  _285
REMARK  122  A    between atoms: _285  and  _286
REMARK  123  A    between atoms: _285  and  _288
REMARK  124  A    between atoms: _291  and  _293
REMARK  125  A    between atoms: _293  and  _294
REMARK  126  A    between atoms: _293  and  _296
REMARK  127  A    between atoms: _296  and  _297
REMARK  128  A    between atoms: _302  and  _303
REMARK                            x       y       z     vdW  Elec       q    Type
REMARK                         _______ _______ _______ _____ _____    ______ ____
ROOT
ATOM      1  O   HOH     1      47.073  -9.586  30.999  0.00  0.00    +0.000 OA
ENDROOT
TORSDOF 0
REMARK  Name = ../refined-set-2016/1c5q/1c5q_pocket.pdb
REMARK  128 active torsions:
REMARK  status: ('A' for Active; 'I' for Inactive)
REMARK    1  A    between atoms: _1  and  _3
REMARK    2  A    between atoms: _3  and  _4
REMARK    3  A    between atoms: _3  and  _6
REMARK    4  A    between atoms: _9  and  _11
REMARK    5  A    between atoms: _11  and  _12
REMARK    6  A    between atoms: _11  and  _14
REMARK    7  A    between atoms: _16  and  _18
REMARK    8  A    between atoms: _18  and  _19
REMARK    9  A    between atoms: _18  and  _21
REMARK   10  A    between atoms: _21  and  _22
REMARK   11  A    between atoms: _27  and  _29
REMARK   12  A    between atoms: _29  and  _30
REMARK   13  A    between atoms: _29  and  _32
REMARK   14  A    between atoms: _32  and  _33
REMARK   15  A    between atoms: _36  and  _38
REMARK   16  A    between atoms: _38  and  _39
REMARK   17  A    between atoms: _38  and  _41
REMARK   18  A    between atoms: _41  and  _42
REMARK   19  A    between atoms: _45  and  _47
REMARK   20  A    between atoms: _47  and  _48
REMARK   21  A    between atoms: _47  and  _50
REMARK   22  A    between atoms: _50  and  _51
REMARK   23  A    between atoms: _54  and  _56
REMARK   24  A    between atoms: _56  and  _57
REMARK   25  A    between atoms: _56  and  _59
REMARK   26  A    between atoms: _59  and  _60
REMARK   27  A    between atoms: _65  and  _67
REMARK   28  A    between atoms: _67  and  _68
REMARK   29  A    between atoms: _67  and  _70
REMARK   30  A    between atoms: _70  and  _71
REMARK   31  A    between atoms: _73  and  _75
REMARK   32  A    between atoms: _75  and  _76
REMARK   33  A    between atoms: _75  and  _78
REMARK   34  A    between atoms: _78  and  _79
REMARK   35  A    between atoms: _84  and  _85
REMARK   36  A    between atoms: _87  and  _89
REMARK   37  A    between atoms: _89  and  _90
REMARK   38  A    between atoms: _93  and  _95
REMARK   39  A    between atoms: _95  and  _96
REMARK   40  A    between atoms: _95  and  _98
REMARK   41  A    between atoms: _98  and  _99
REMARK   42  A    between atoms: _99  and  _100
REMARK   43  A    between atoms: _100  and  _101
REMARK   44  A    between atoms: _101  and  _102
REMARK   45  A    between atoms: _106  and  _108
REMARK   46  A    between atoms: _108  and  _109
REMARK   47  A    between atoms: _108  and  _111
REMARK   48  A    between atoms: _111  and  _112
REMARK   49  A    between atoms: _115  and  _117
REMARK   50  A    between atoms: _117  and  _118
REMARK   51  A    between atoms: _117  and  _120
REMARK   52  A    between atoms: _120  and  _121
REMARK   53  A    between atoms: _123  and  _125
REMARK   54  A    between atoms: _125  and  _126
REMARK   55  A    between atoms: _125  and  _128
REMARK   56  A    between atoms: _128  and  _129
REMARK   57  A    between atoms: _129  and  _239
REMARK   58  A    between atoms: _130  and  _132
REMARK   59  A    between atoms: _132  and  _133
REMARK   60  A    between atoms: _132  and  _135
REMARK   61  A    between atoms: _135  and  _136
REMARK   62  A    between atoms: _136  and  _137
REMARK   63  A    between atoms: _142  and  _144
REMARK   64  A    between atoms: _144  and  _145
REMARK   65  A    between atoms: _147  and  _149
REMARK   66  A    between atoms: _149  and  _150
REMARK   67  A    between atoms: _149  and  _152
REMARK   68  A    between atoms: _152  and  _153
REMARK   69  A    between atoms: _156  and  _158
REMARK   70  A    between atoms: _158  and  _159
REMARK   71  A    between atoms: _158  and  _161
REMARK   72  A    between atoms: _161  and  _162
REMARK   73  A    between atoms: _164  and  _166
REMARK   74  A    between atoms: _166  and  _167
REMARK   75  A    between atoms: _169  and  _171
REMARK   76  A    between atoms: _171  and  _172
REMARK   77  A    between atoms: _174  and  _176
REMARK   78  A    between atoms: _176  and  _177
REMARK   79  A    between atoms: _176  and  _179
REMARK   80  A    between atoms: _179  and  _180
REMARK   81  A    between atoms: _183  and  _185
REMARK   82  A    between atoms: _185  and  _186
REMARK   83  A    between atoms: _185  and  _188
REMARK   84  A    between atoms: _191  and  _193
REMARK   85  A    between atoms: _193  and  _194
REMARK   86  A    between atoms: _193  and  _196
REMARK   87  A    between atoms: _196  and  _197
REMARK   88  A    between atoms: _199  and  _201
REMARK   89  A    between atoms: _201  and  _202
REMARK   90  A    between atoms: _201  and  _204
REMARK   91  A    between atoms: _204  and  _205
REMARK   92  A    between atoms: _215  and  _217
REMARK   93  A    between atoms: _217  and  _218
REMARK   94  A    between atoms: _220  and  _222
REMARK   95  A    between atoms: _222  and  _223
REMARK   96  A    between atoms: _222  and  _225
REMARK   97  A    between atoms: _225  and  _226
REMARK   98  A    between atoms: _228  and  _230
REMARK   99  A    between atoms: _230  and  _231
REMARK  100  A    between atoms: _233  and  _235
REMARK  101  A    between atoms: _235  and  _236
REMARK  102  A    between atoms: _235  and  _238
REMARK  103  A    between atoms: _238  and  _239
REMARK  104  A    between atoms: _240  and  _242
REMARK  105  A    between atoms: _242  and  _243
REMARK  106  A    between atoms: _246  and  _248
REMARK  107  A    between atoms: _248  and  _249
REMARK  108  A    between atoms: _248  and  _251
REMARK  109  A    between atoms: _251  and  _252
REMARK  110  A    between atoms: _252  and  _253
REMARK  111  A    between atoms: _258  and  _260
REMARK  112  A    between atoms: _260  and  _261
REMARK  113  A    between atoms: _260  and  _263
REMARK  114  A    between atoms: _263  and  _264
REMARK  115  A    between atoms: _264  and  _265
REMARK  116  A    between atoms: _265  and  _266
REMARK  117  A    between atoms: _266  and  _267
REMARK  118  A    between atoms: _272  and  _273
REMARK  119  A    between atoms: _278  and  _280
REMARK  120  A    between atoms: _280  and  _281
REMARK  121  A    between atoms: _283  and  _285
REMARK  122  A    between atoms: _285  and  _286
REMARK  123  A    between atoms: _285  and  _288
REMARK  124  A    between atoms: _291  and  _293
REMARK  125  A    between atoms: _293  and  _294
REMARK  126  A    between atoms: _293  and  _296
REMARK  127  A    between atoms: _296  and  _297
REMARK  128  A    between atoms: _302  and  _303
REMARK                            x       y       z     vdW  Elec       q    Type
REMARK                         _______ _______ _______ _____ _____    ______ ____
ROOT
ATOM      1  O   HOH     1      39.400  -7.450  30.378  0.00  0.00    +0.000 OA
ENDROOT
TORSDOF 0
REMARK  Name = ../refined-set-2016/1c5q/1c5q_pocket.pdb
REMARK  128 active torsions:
REMARK  status: ('A' for Active; 'I' for Inactive)
REMARK    1  A    between atoms: _1  and  _3
REMARK    2  A    between atoms: _3  and  _4
REMARK    3  A    between atoms: _3  and  _6
REMARK    4  A    between atoms: _9  and  _11
REMARK    5  A    between atoms: _11  and  _12
REMARK    6  A    between atoms: _11  and  _14
REMARK    7  A    between atoms: _16  and  _18
REMARK    8  A    between atoms: _18  and  _19
REMARK    9  A    between atoms: _18  and  _21
REMARK   10  A    between atoms: _21  and  _22
REMARK   11  A    between atoms: _27  and  _29
REMARK   12  A    between atoms: _29  and  _30
REMARK   13  A    between atoms: _29  and  _32
REMARK   14  A    between atoms: _32  and  _33
REMARK   15  A    between atoms: _36  and  _38
REMARK   16  A    between atoms: _38  and  _39
REMARK   17  A    between atoms: _38  and  _41
REMARK   18  A    between atoms: _41  and  _42
REMARK   19  A    between atoms: _45  and  _47
REMARK   20  A    between atoms: _47  and  _48
REMARK   21  A    between atoms: _47  and  _50
REMARK   22  A    between atoms: _50  and  _51
REMARK   23  A    between atoms: _54  and  _56
REMARK   24  A    between atoms: _56  and  _57
REMARK   25  A    between atoms: _56  and  _59
REMARK   26  A    between atoms: _59  and  _60
REMARK   27  A    between atoms: _65  and  _67
REMARK   28  A    between atoms: _67  and  _68
REMARK   29  A    between atoms: _67  and  _70
REMARK   30  A    between atoms: _70  and  _71
REMARK   31  A    between atoms: _73  and  _75
REMARK   32  A    between atoms: _75  and  _76
REMARK   33  A    between atoms: _75  and  _78
REMARK   34  A    between atoms: _78  and  _79
REMARK   35  A    between atoms: _84  and  _85
REMARK   36  A    between atoms: _87  and  _89
REMARK   37  A    between atoms: _89  and  _90
REMARK   38  A    between atoms: _93  and  _95
REMARK   39  A    between atoms: _95  and  _96
REMARK   40  A    between atoms: _95  and  _98
REMARK   41  A    between atoms: _98  and  _99
REMARK   42  A    between atoms: _99  and  _100
REMARK   43  A    between atoms: _100  and  _101
REMARK   44  A    between atoms: _101  and  _102
REMARK   45  A    between atoms: _106  and  _108
REMARK   46  A    between atoms: _108  and  _109
REMARK   47  A    between atoms: _108  and  _111
REMARK   48  A    between atoms: _111  and  _112
REMARK   49  A    between atoms: _115  and  _117
REMARK   50  A    between atoms: _117  and  _118
REMARK   51  A    between atoms: _117  and  _120
REMARK   52  A    between atoms: _120  and  _121
REMARK   53  A    between atoms: _123  and  _125
REMARK   54  A    between atoms: _125  and  _126
REMARK   55  A    between atoms: _125  and  _128
REMARK   56  A    between atoms: _128  and  _129
REMARK   57  A    between atoms: _129  and  _239
REMARK   58  A    between atoms: _130  and  _132
REMARK   59  A    between atoms: _132  and  _133
REMARK   60  A    between atoms: _132  and  _135
REMARK   61  A    between atoms: _135  and  _136
REMARK   62  A    between atoms: _136  and  _137
REMARK   63  A    between atoms: _142  and  _144
REMARK   64  A    between atoms: _144  and  _145
REMARK   65  A    between atoms: _147  and  _149
REMARK   66  A    between atoms: _149  and  _150
REMARK   67  A    between atoms: _149  and  _152
REMARK   68  A    between atoms: _152  and  _153
REMARK   69  A    between atoms: _156  and  _158
REMARK   70  A    between atoms: _158  and  _159
REMARK   71  A    between atoms: _158  and  _161
REMARK   72  A    between atoms: _161  and  _162
REMARK   73  A    between atoms: _164  and  _166
REMARK   74  A    between atoms: _166  and  _167
REMARK   75  A    between atoms: _169  and  _171
REMARK   76  A    between atoms: _171  and  _172
REMARK   77  A    between atoms: _174  and  _176
REMARK   78  A    between atoms: _176  and  _177
REMARK   79  A    between atoms: _176  and  _179
REMARK   80  A    between atoms: _179  and  _180
REMARK   81  A    between atoms: _183  and  _185
REMARK   82  A    between atoms: _185  and  _186
REMARK   83  A    between atoms: _185  and  _188
REMARK   84  A    between atoms: _191  and  _193
REMARK   85  A    between atoms: _193  and  _194
REMARK   86  A    between atoms: _193  and  _196
REMARK   87  A    between atoms: _196  and  _197
REMARK   88  A    between atoms: _199  and  _201
REMARK   89  A    between atoms: _201  and  _202
REMARK   90  A    between atoms: _201  and  _204
REMARK   91  A    between atoms: _204  and  _205
REMARK   92  A    between atoms: _215  and  _217
REMARK   93  A    between atoms: _217  and  _218
REMARK   94  A    between atoms: _220  and  _222
REMARK   95  A    between atoms: _222  and  _223
REMARK   96  A    between atoms: _222  and  _225
REMARK   97  A    between atoms: _225  and  _226
REMARK   98  A    between atoms: _228  and  _230
REMARK   99  A    between atoms: _230  and  _231
REMARK  100  A    between atoms: _233  and  _235
REMARK  101  A    between atoms: _235  and  _236
REMARK  102  A    between atoms: _235  and  _238
REMARK  103  A    between atoms: _238  and  _239
REMARK  104  A    between atoms: _240  and  _242
REMARK  105  A    between atoms: _242  and  _243
REMARK  106  A    between atoms: _246  and  _248
REMARK  107  A    between atoms: _248  and  _249
REMARK  108  A    between atoms: _248  and  _251
REMARK  109  A    between atoms: _251  and  _252
REMARK  110  A    between atoms: _252  and  _253
REMARK  111  A    between atoms: _258  and  _260
REMARK  112  A    between atoms: _260  and  _261
REMARK  113  A    between atoms: _260  and  _263
REMARK  114  A    between atoms: _263  and  _264
REMARK  115  A    between atoms: _264  and  _265
REMARK  116  A    between atoms: _265  and  _266
REMARK  117  A    between atoms: _266  and  _267
REMARK  118  A    between atoms: _272  and  _273
REMARK  119  A    between atoms: _278  and  _280
REMARK  120  A    between atoms: _280  and  _281
REMARK  121  A    between atoms: _283  and  _285
REMARK  122  A    between atoms: _285  and  _286
REMARK  123  A    between atoms: _285  and  _288
REMARK  124  A    between atoms: _291  and  _293
REMARK  125  A    between atoms: _293  and  _294
REMARK  126  A    between atoms: _293  and  _296
REMARK  127  A    between atoms: _296  and  _297
REMARK  128  A    between atoms: _302  and  _303
REMARK                            x       y       z     vdW  Elec       q    Type
REMARK                         _______ _______ _______ _____ _____    ______ ____
ROOT
ATOM      1  O   HOH     1      43.427 -11.085  33.500  0.00  0.00    +0.000 OA
ENDROOT
TORSDOF 0
REMARK  Name = ../refined-set-2016/1c5q/1c5q_pocket.pdb
REMARK  128 active torsions:
REMARK  status: ('A' for Active; 'I' for Inactive)
REMARK    1  A    between atoms: _1  and  _3
REMARK    2  A    between atoms: _3  and  _4
REMARK    3  A    between atoms: _3  and  _6
REMARK    4  A    between atoms: _9  and  _11
REMARK    5  A    between atoms: _11  and  _12
REMARK    6  A    between atoms: _11  and  _14
REMARK    7  A    between atoms: _16  and  _18
REMARK    8  A    between atoms: _18  and  _19
REMARK    9  A    between atoms: _18  and  _21
REMARK   10  A    between atoms: _21  and  _22
REMARK   11  A    between atoms: _27  and  _29
REMARK   12  A    between atoms: _29  and  _30
REMARK   13  A    between atoms: _29  and  _32
REMARK   14  A    between atoms: _32  and  _33
REMARK   15  A    between atoms: _36  and  _38
REMARK   16  A    between atoms: _38  and  _39
REMARK   17  A    between atoms: _38  and  _41
REMARK   18  A    between atoms: _41  and  _42
REMARK   19  A    between atoms: _45  and  _47
REMARK   20  A    between atoms: _47  and  _48
REMARK   21  A    between atoms: _47  and  _50
REMARK   22  A    between atoms: _50  and  _51
REMARK   23  A    between atoms: _54  and  _56
REMARK   24  A    between atoms: _56  and  _57
REMARK   25  A    between atoms: _56  and  _59
REMARK   26  A    between atoms: _59  and  _60
REMARK   27  A    between atoms: _65  and  _67
REMARK   28  A    between atoms: _67  and  _68
REMARK   29  A    between atoms: _67  and  _70
REMARK   30  A    between atoms: _70  and  _71
REMARK   31  A    between atoms: _73  and  _75
REMARK   32  A    between atoms: _75  and  _76
REMARK   33  A    between atoms: _75  and  _78
REMARK   34  A    between atoms: _78  and  _79
REMARK   35  A    between atoms: _84  and  _85
REMARK   36  A    between atoms: _87  and  _89
REMARK   37  A    between atoms: _89  and  _90
REMARK   38  A    between atoms: _93  and  _95
REMARK   39  A    between atoms: _95  and  _96
REMARK   40  A    between atoms: _95  and  _98
REMARK   41  A    between atoms: _98  and  _99
REMARK   42  A    between atoms: _99  and  _100
REMARK   43  A    between atoms: _100  and  _101
REMARK   44  A    between atoms: _101  and  _102
REMARK   45  A    between atoms: _106  and  _108
REMARK   46  A    between atoms: _108  and  _109
REMARK   47  A    between atoms: _108  and  _111
REMARK   48  A    between atoms: _111  and  _112
REMARK   49  A    between atoms: _115  and  _117
REMARK   50  A    between atoms: _117  and  _118
REMARK   51  A    between atoms: _117  and  _120
REMARK   52  A    between atoms: _120  and  _121
REMARK   53  A    between atoms: _123  and  _125
REMARK   54  A    between atoms: _125  and  _126
REMARK   55  A    between atoms: _125  and  _128
REMARK   56  A    between atoms: _128  and  _129
REMARK   57  A    between atoms: _129  and  _239
REMARK   58  A    between atoms: _130  and  _132
REMARK   59  A    between atoms: _132  and  _133
REMARK   60  A    between atoms: _132  and  _135
REMARK   61  A    between atoms: _135  and  _136
REMARK   62  A    between atoms: _136  and  _137
REMARK   63  A    between atoms: _142  and  _144
REMARK   64  A    between atoms: _144  and  _145
REMARK   65  A    between atoms: _147  and  _149
REMARK   66  A    between atoms: _149  and  _150
REMARK   67  A    between atoms: _149  and  _152
REMARK   68  A    between atoms: _152  and  _153
REMARK   69  A    between atoms: _156  and  _158
REMARK   70  A    between atoms: _158  and  _159
REMARK   71  A    between atoms: _158  and  _161
REMARK   72  A    between atoms: _161  and  _162
REMARK   73  A    between atoms: _164  and  _166
REMARK   74  A    between atoms: _166  and  _167
REMARK   75  A    between atoms: _169  and  _171
REMARK   76  A    between atoms: _171  and  _172
REMARK   77  A    between atoms: _174  and  _176
REMARK   78  A    between atoms: _176  and  _177
REMARK   79  A    between atoms: _176  and  _179
REMARK   80  A    between atoms: _179  and  _180
REMARK   81  A    between atoms: _183  and  _185
REMARK   82  A    between atoms: _185  and  _186
REMARK   83  A    between atoms: _185  and  _188
REMARK   84  A    between atoms: _191  and  _193
REMARK   85  A    between atoms: _193  and  _194
REMARK   86  A    between atoms: _193  and  _196
REMARK   87  A    between atoms: _196  and  _197
REMARK   88  A    between atoms: _199  and  _201
REMARK   89  A    between atoms: _201  and  _202
REMARK   90  A    between atoms: _201  and  _204
REMARK   91  A    between atoms: _204  and  _205
REMARK   92  A    between atoms: _215  and  _217
REMARK   93  A    between atoms: _217  and  _218
REMARK   94  A    between atoms: _220  and  _222
REMARK   95  A    between atoms: _222  and  _223
REMARK   96  A    between atoms: _222  and  _225
REMARK   97  A    between atoms: _225  and  _226
REMARK   98  A    between atoms: _228  and  _230
REMARK   99  A    between atoms: _230  and  _231
REMARK  100  A    between atoms: _233  and  _235
REMARK  101  A    between atoms: _235  and  _236
REMARK  102  A    between atoms: _235  and  _238
REMARK  103  A    between atoms: _238  and  _239
REMARK  104  A    between atoms: _240  and  _242
REMARK  105  A    between atoms: _242  and  _243
REMARK  106  A    between atoms: _246  and  _248
REMARK  107  A    between atoms: _248  and  _249
REMARK  108  A    between atoms: _248  and  _251
REMARK  109  A    between atoms: _251  and  _252
REMARK  110  A    between atoms: _252  and  _253
REMARK  111  A    between atoms: _258  and  _260
REMARK  112  A    between atoms: _260  and  _261
REMARK  113  A    between atoms: _260  and  _263
REMARK  114  A    between atoms: _263  and  _264
REMARK  115  A    between atoms: _264  and  _265
REMARK  116  A    between atoms: _265  and  _266
REMARK  117  A    between atoms: _266  and  _267
REMARK  118  A    between atoms: _272  and  _273
REMARK  119  A    between atoms: _278  and  _280
REMARK  120  A    between atoms: _280  and  _281
REMARK  121  A    between atoms: _283  and  _285
REMARK  122  A    between atoms: _285  and  _286
REMARK  123  A    between atoms: _285  and  _288
REMARK  124  A    between atoms: _291  and  _293
REMARK  125  A    between atoms: _293  and  _294
REMARK  126  A    between atoms: _293  and  _296
REMARK  127  A    between atoms: _296  and  _297
REMARK  128  A    between atoms: _302  and  _303
REMARK                            x       y       z     vdW  Elec       q    Type
REMARK                         _______ _______ _______ _____ _____    ______ ____
ROOT
ATOM      1  O   HOH     1      45.647   0.309  33.095  0.00  0.00    +0.000 OA
ENDROOT
TORSDOF 0
REMARK  Name = ../refined-set-2016/1c5q/1c5q_pocket.pdb
REMARK  128 active torsions:
REMARK  status: ('A' for Active; 'I' for Inactive)
REMARK    1  A    between atoms: _1  and  _3
REMARK    2  A    between atoms: _3  and  _4
REMARK    3  A    between atoms: _3  and  _6
REMARK    4  A    between atoms: _9  and  _11
REMARK    5  A    between atoms: _11  and  _12
REMARK    6  A    between atoms: _11  and  _14
REMARK    7  A    between atoms: _16  and  _18
REMARK    8  A    between atoms: _18  and  _19
REMARK    9  A    between atoms: _18  and  _21
REMARK   10  A    between atoms: _21  and  _22
REMARK   11  A    between atoms: _27  and  _29
REMARK   12  A    between atoms: _29  and  _30
REMARK   13  A    between atoms: _29  and  _32
REMARK   14  A    between atoms: _32  and  _33
REMARK   15  A    between atoms: _36  and  _38
REMARK   16  A    between atoms: _38  and  _39
REMARK   17  A    between atoms: _38  and  _41
REMARK   18  A    between atoms: _41  and  _42
REMARK   19  A    between atoms: _45  and  _47
REMARK   20  A    between atoms: _47  and  _48
REMARK   21  A    between atoms: _47  and  _50
REMARK   22  A    between atoms: _50  and  _51
REMARK   23  A    between atoms: _54  and  _56
REMARK   24  A    between atoms: _56  and  _57
REMARK   25  A    between atoms: _56  and  _59
REMARK   26  A    between atoms: _59  and  _60
REMARK   27  A    between atoms: _65  and  _67
REMARK   28  A    between atoms: _67  and  _68
REMARK   29  A    between atoms: _67  and  _70
REMARK   30  A    between atoms: _70  and  _71
REMARK   31  A    between atoms: _73  and  _75
REMARK   32  A    between atoms: _75  and  _76
REMARK   33  A    between atoms: _75  and  _78
REMARK   34  A    between atoms: _78  and  _79
REMARK   35  A    between atoms: _84  and  _85
REMARK   36  A    between atoms: _87  and  _89
REMARK   37  A    between atoms: _89  and  _90
REMARK   38  A    between atoms: _93  and  _95
REMARK   39  A    between atoms: _95  and  _96
REMARK   40  A    between atoms: _95  and  _98
REMARK   41  A    between atoms: _98  and  _99
REMARK   42  A    between atoms: _99  and  _100
REMARK   43  A    between atoms: _100  and  _101
REMARK   44  A    between atoms: _101  and  _102
REMARK   45  A    between atoms: _106  and  _108
REMARK   46  A    between atoms: _108  and  _109
REMARK   47  A    between atoms: _108  and  _111
REMARK   48  A    between atoms: _111  and  _112
REMARK   49  A    between atoms: _115  and  _117
REMARK   50  A    between atoms: _117  and  _118
REMARK   51  A    between atoms: _117  and  _120
REMARK   52  A    between atoms: _120  and  _121
REMARK   53  A    between atoms: _123  and  _125
REMARK   54  A    between atoms: _125  and  _126
REMARK   55  A    between atoms: _125  and  _128
REMARK   56  A    between atoms: _128  and  _129
REMARK   57  A    between atoms: _129  and  _239
REMARK   58  A    between atoms: _130  and  _132
REMARK   59  A    between atoms: _132  and  _133
REMARK   60  A    between atoms: _132  and  _135
REMARK   61  A    between atoms: _135  and  _136
REMARK   62  A    between atoms: _136  and  _137
REMARK   63  A    between atoms: _142  and  _144
REMARK   64  A    between atoms: _144  and  _145
REMARK   65  A    between atoms: _147  and  _149
REMARK   66  A    between atoms: _149  and  _150
REMARK   67  A    between atoms: _149  and  _152
REMARK   68  A    between atoms: _152  and  _153
REMARK   69  A    between atoms: _156  and  _158
REMARK   70  A    between atoms: _158  and  _159
REMARK   71  A    between atoms: _158  and  _161
REMARK   72  A    between atoms: _161  and  _162
REMARK   73  A    between atoms: _164  and  _166
REMARK   74  A    between atoms: _166  and  _167
REMARK   75  A    between atoms: _169  and  _171
REMARK   76  A    between atoms: _171  and  _172
REMARK   77  A    between atoms: _174  and  _176
REMARK   78  A    between atoms: _176  and  _177
REMARK   79  A    between atoms: _176  and  _179
REMARK   80  A    between atoms: _179  and  _180
REMARK   81  A    between atoms: _183  and  _185
REMARK   82  A    between atoms: _185  and  _186
REMARK   83  A    between atoms: _185  and  _188
REMARK   84  A    between atoms: _191  and  _193
REMARK   85  A    between atoms: _193  and  _194
REMARK   86  A    between atoms: _193  and  _196
REMARK   87  A    between atoms: _196  and  _197
REMARK   88  A    between atoms: _199  and  _201
REMARK   89  A    between atoms: _201  and  _202
REMARK   90  A    between atoms: _201  and  _204
REMARK   91  A    between atoms: _204  and  _205
REMARK   92  A    between atoms: _215  and  _217
REMARK   93  A    between atoms: _217  and  _218
REMARK   94  A    between atoms: _220  and  _222
REMARK   95  A    between atoms: _222  and  _223
REMARK   96  A    between atoms: _222  and  _225
REMARK   97  A    between atoms: _225  and  _226
REMARK   98  A    between atoms: _228  and  _230
REMARK   99  A    between atoms: _230  and  _231
REMARK  100  A    between atoms: _233  and  _235
REMARK  101  A    between atoms: _235  and  _236
REMARK  102  A    between atoms: _235  and  _238
REMARK  103  A    between atoms: _238  and  _239
REMARK  104  A    between atoms: _240  and  _242
REMARK  105  A    between atoms: _242  and  _243
REMARK  106  A    between atoms: _246  and  _248
REMARK  107  A    between atoms: _248  and  _249
REMARK  108  A    between atoms: _248  and  _251
REMARK  109  A    between atoms: _251  and  _252
REMARK  110  A    between atoms: _252  and  _253
REMARK  111  A    between atoms: _258  and  _260
REMARK  112  A    between atoms: _260  and  _261
REMARK  113  A    between atoms: _260  and  _263
REMARK  114  A    between atoms: _263  and  _264
REMARK  115  A    between atoms: _264  and  _265
REMARK  116  A    between atoms: _265  and  _266
REMARK  117  A    between atoms: _266  and  _267
REMARK  118  A    between atoms: _272  and  _273
REMARK  119  A    between atoms: _278  and  _280
REMARK  120  A    between atoms: _280  and  _281
REMARK  121  A    between atoms: _283  and  _285
REMARK  122  A    between atoms: _285  and  _286
REMARK  123  A    between atoms: _285  and  _288
REMARK  124  A    between atoms: _291  and  _293
REMARK  125  A    between atoms: _293  and  _294
REMARK  126  A    between atoms: _293  and  _296
REMARK  127  A    between atoms: _296  and  _297
REMARK  128  A    between atoms: _302  and  _303
REMARK                            x       y       z     vdW  Elec       q    Type
REMARK                         _______ _______ _______ _____ _____    ______ ____
ROOT
ATOM      1  O   HOH     1      46.244   1.652  35.480  0.00  0.00    +0.000 OA
ENDROOT
TORSDOF 0
REMARK  Name = ../refined-set-2016/1c5q/1c5q_pocket.pdb
REMARK  128 active torsions:
REMARK  status: ('A' for Active; 'I' for Inactive)
REMARK    1  A    between atoms: _1  and  _3
REMARK    2  A    between atoms: _3  and  _4
REMARK    3  A    between atoms: _3  and  _6
REMARK    4  A    between atoms: _9  and  _11
REMARK    5  A    between atoms: _11  and  _12
REMARK    6  A    between atoms: _11  and  _14
REMARK    7  A    between atoms: _16  and  _18
REMARK    8  A    between atoms: _18  and  _19
REMARK    9  A    between atoms: _18  and  _21
REMARK   10  A    between atoms: _21  and  _22
REMARK   11  A    between atoms: _27  and  _29
REMARK   12  A    between atoms: _29  and  _30
REMARK   13  A    between atoms: _29  and  _32
REMARK   14  A    between atoms: _32  and  _33
REMARK   15  A    between atoms: _36  and  _38
REMARK   16  A    between atoms: _38  and  _39
REMARK   17  A    between atoms: _38  and  _41
REMARK   18  A    between atoms: _41  and  _42
REMARK   19  A    between atoms: _45  and  _47
REMARK   20  A    between atoms: _47  and  _48
REMARK   21  A    between atoms: _47  and  _50
REMARK   22  A    between atoms: _50  and  _51
REMARK   23  A    between atoms: _54  and  _56
REMARK   24  A    between atoms: _56  and  _57
REMARK   25  A    between atoms: _56  and  _59
REMARK   26  A    between atoms: _59  and  _60
REMARK   27  A    between atoms: _65  and  _67
REMARK   28  A    between atoms: _67  and  _68
REMARK   29  A    between atoms: _67  and  _70
REMARK   30  A    between atoms: _70  and  _71
REMARK   31  A    between atoms: _73  and  _75
REMARK   32  A    between atoms: _75  and  _76
REMARK   33  A    between atoms: _75  and  _78
REMARK   34  A    between atoms: _78  and  _79
REMARK   35  A    between atoms: _84  and  _85
REMARK   36  A    between atoms: _87  and  _89
REMARK   37  A    between atoms: _89  and  _90
REMARK   38  A    between atoms: _93  and  _95
REMARK   39  A    between atoms: _95  and  _96
REMARK   40  A    between atoms: _95  and  _98
REMARK   41  A    between atoms: _98  and  _99
REMARK   42  A    between atoms: _99  and  _100
REMARK   43  A    between atoms: _100  and  _101
REMARK   44  A    between atoms: _101  and  _102
REMARK   45  A    between atoms: _106  and  _108
REMARK   46  A    between atoms: _108  and  _109
REMARK   47  A    between atoms: _108  and  _111
REMARK   48  A    between atoms: _111  and  _112
REMARK   49  A    between atoms: _115  and  _117
REMARK   50  A    between atoms: _117  and  _118
REMARK   51  A    between atoms: _117  and  _120
REMARK   52  A    between atoms: _120  and  _121
REMARK   53  A    between atoms: _123  and  _125
REMARK   54  A    between atoms: _125  and  _126
REMARK   55  A    between atoms: _125  and  _128
REMARK   56  A    between atoms: _128  and  _129
REMARK   57  A    between atoms: _129  and  _239
REMARK   58  A    between atoms: _130  and  _132
REMARK   59  A    between atoms: _132  and  _133
REMARK   60  A    between atoms: _132  and  _135
REMARK   61  A    between atoms: _135  and  _136
REMARK   62  A    between atoms: _136  and  _137
REMARK   63  A    between atoms: _142  and  _144
REMARK   64  A    between atoms: _144  and  _145
REMARK   65  A    between atoms: _147  and  _149
REMARK   66  A    between atoms: _149  and  _150
REMARK   67  A    between atoms: _149  and  _152
REMARK   68  A    between atoms: _152  and  _153
REMARK   69  A    between atoms: _156  and  _158
REMARK   70  A    between atoms: _158  and  _159
REMARK   71  A    between atoms: _158  and  _161
REMARK   72  A    between atoms: _161  and  _162
REMARK   73  A    between atoms: _164  and  _166
REMARK   74  A    between atoms: _166  and  _167
REMARK   75  A    between atoms: _169  and  _171
REMARK   76  A    between atoms: _171  and  _172
REMARK   77  A    between atoms: _174  and  _176
REMARK   78  A    between atoms: _176  and  _177
REMARK   79  A    between atoms: _176  and  _179
REMARK   80  A    between atoms: _179  and  _180
REMARK   81  A    between atoms: _183  and  _185
REMARK   82  A    between atoms: _185  and  _186
REMARK   83  A    between atoms: _185  and  _188
REMARK   84  A    between atoms: _191  and  _193
REMARK   85  A    between atoms: _193  and  _194
REMARK   86  A    between atoms: _193  and  _196
REMARK   87  A    between atoms: _196  and  _197
REMARK   88  A    between atoms: _199  and  _201
REMARK   89  A    between atoms: _201  and  _202
REMARK   90  A    between atoms: _201  and  _204
REMARK   91  A    between atoms: _204  and  _205
REMARK   92  A    between atoms: _215  and  _217
REMARK   93  A    between atoms: _217  and  _218
REMARK   94  A    between atoms: _220  and  _222
REMARK   95  A    between atoms: _222  and  _223
REMARK   96  A    between atoms: _222  and  _225
REMARK   97  A    between atoms: _225  and  _226
REMARK   98  A    between atoms: _228  and  _230
REMARK   99  A    between atoms: _230  and  _231
REMARK  100  A    between atoms: _233  and  _235
REMARK  101  A    between atoms: _235  and  _236
REMARK  102  A    between atoms: _235  and  _238
REMARK  103  A    between atoms: _238  and  _239
REMARK  104  A    between atoms: _240  and  _242
REMARK  105  A    between atoms: _242  and  _243
REMARK  106  A    between atoms: _246  and  _248
REMARK  107  A    between atoms: _248  and  _249
REMARK  108  A    between atoms: _248  and  _251
REMARK  109  A    between atoms: _251  and  _252
REMARK  110  A    between atoms: _252  and  _253
REMARK  111  A    between atoms: _258  and  _260
REMARK  112  A    between atoms: _260  and  _261
REMARK  113  A    between atoms: _260  and  _263
REMARK  114  A    between atoms: _263  and  _264
REMARK  115  A    between atoms: _264  and  _265
REMARK  116  A    between atoms: _265  and  _266
REMARK  117  A    between atoms: _266  and  _267
REMARK  118  A    between atoms: _272  and  _273
REMARK  119  A    between atoms: _278  and  _280
REMARK  120  A    between atoms: _280  and  _281
REMARK  121  A    between atoms: _283  and  _285
REMARK  122  A    between atoms: _285  and  _286
REMARK  123  A    between atoms: _285  and  _288
REMARK  124  A    between atoms: _291  and  _293
REMARK  125  A    between atoms: _293  and  _294
REMARK  126  A    between atoms: _293  and  _296
REMARK  127  A    between atoms: _296  and  _297
REMARK  128  A    between atoms: _302  and  _303
REMARK                            x       y       z     vdW  Elec       q    Type
REMARK                         _______ _______ _______ _____ _____    ______ ____
ROOT
ATOM      1  O   HOH     1      40.239   2.300  35.860  0.00  0.00    +0.000 OA
ENDROOT
TORSDOF 0
REMARK  Name = ../refined-set-2016/1c5q/1c5q_pocket.pdb
REMARK  128 active torsions:
REMARK  status: ('A' for Active; 'I' for Inactive)
REMARK    1  A    between atoms: _1  and  _3
REMARK    2  A    between atoms: _3  and  _4
REMARK    3  A    between atoms: _3  and  _6
REMARK    4  A    between atoms: _9  and  _11
REMARK    5  A    between atoms: _11  and  _12
REMARK    6  A    between atoms: _11  and  _14
REMARK    7  A    between atoms: _16  and  _18
REMARK    8  A    between atoms: _18  and  _19
REMARK    9  A    between atoms: _18  and  _21
REMARK   10  A    between atoms: _21  and  _22
REMARK   11  A    between atoms: _27  and  _29
REMARK   12  A    between atoms: _29  and  _30
REMARK   13  A    between atoms: _29  and  _32
REMARK   14  A    between atoms: _32  and  _33
REMARK   15  A    between atoms: _36  and  _38
REMARK   16  A    between atoms: _38  and  _39
REMARK   17  A    between atoms: _38  and  _41
REMARK   18  A    between atoms: _41  and  _42
REMARK   19  A    between atoms: _45  and  _47
REMARK   20  A    between atoms: _47  and  _48
REMARK   21  A    between atoms: _47  and  _50
REMARK   22  A    between atoms: _50  and  _51
REMARK   23  A    between atoms: _54  and  _56
REMARK   24  A    between atoms: _56  and  _57
REMARK   25  A    between atoms: _56  and  _59
REMARK   26  A    between atoms: _59  and  _60
REMARK   27  A    between atoms: _65  and  _67
REMARK   28  A    between atoms: _67  and  _68
REMARK   29  A    between atoms: _67  and  _70
REMARK   30  A    between atoms: _70  and  _71
REMARK   31  A    between atoms: _73  and  _75
REMARK   32  A    between atoms: _75  and  _76
REMARK   33  A    between atoms: _75  and  _78
REMARK   34  A    between atoms: _78  and  _79
REMARK   35  A    between atoms: _84  and  _85
REMARK   36  A    between atoms: _87  and  _89
REMARK   37  A    between atoms: _89  and  _90
REMARK   38  A    between atoms: _93  and  _95
REMARK   39  A    between atoms: _95  and  _96
REMARK   40  A    between atoms: _95  and  _98
REMARK   41  A    between atoms: _98  and  _99
REMARK   42  A    between atoms: _99  and  _100
REMARK   43  A    between atoms: _100  and  _101
REMARK   44  A    between atoms: _101  and  _102
REMARK   45  A    between atoms: _106  and  _108
REMARK   46  A    between atoms: _108  and  _109
REMARK   47  A    between atoms: _108  and  _111
REMARK   48  A    between atoms: _111  and  _112
REMARK   49  A    between atoms: _115  and  _117
REMARK   50  A    between atoms: _117  and  _118
REMARK   51  A    between atoms: _117  and  _120
REMARK   52  A    between atoms: _120  and  _121
REMARK   53  A    between atoms: _123  and  _125
REMARK   54  A    between atoms: _125  and  _126
REMARK   55  A    between atoms: _125  and  _128
REMARK   56  A    between atoms: _128  and  _129
REMARK   57  A    between atoms: _129  and  _239
REMARK   58  A    between atoms: _130  and  _132
REMARK   59  A    between atoms: _132  and  _133
REMARK   60  A    between atoms: _132  and  _135
REMARK   61  A    between atoms: _135  and  _136
REMARK   62  A    between atoms: _136  and  _137
REMARK   63  A    between atoms: _142  and  _144
REMARK   64  A    between atoms: _144  and  _145
REMARK   65  A    between atoms: _147  and  _149
REMARK   66  A    between atoms: _149  and  _150
REMARK   67  A    between atoms: _149  and  _152
REMARK   68  A    between atoms: _152  and  _153
REMARK   69  A    between atoms: _156  and  _158
REMARK   70  A    between atoms: _158  and  _159
REMARK   71  A    between atoms: _158  and  _161
REMARK   72  A    between atoms: _161  and  _162
REMARK   73  A    between atoms: _164  and  _166
REMARK   74  A    between atoms: _166  and  _167
REMARK   75  A    between atoms: _169  and  _171
REMARK   76  A    between atoms: _171  and  _172
REMARK   77  A    between atoms: _174  and  _176
REMARK   78  A    between atoms: _176  and  _177
REMARK   79  A    between atoms: _176  and  _179
REMARK   80  A    between atoms: _179  and  _180
REMARK   81  A    between atoms: _183  and  _185
REMARK   82  A    between atoms: _185  and  _186
REMARK   83  A    between atoms: _185  and  _188
REMARK   84  A    between atoms: _191  and  _193
REMARK   85  A    between atoms: _193  and  _194
REMARK   86  A    between atoms: _193  and  _196
REMARK   87  A    between atoms: _196  and  _197
REMARK   88  A    between atoms: _199  and  _201
REMARK   89  A    between atoms: _201  and  _202
REMARK   90  A    between atoms: _201  and  _204
REMARK   91  A    between atoms: _204  and  _205
REMARK   92  A    between atoms: _215  and  _217
REMARK   93  A    between atoms: _217  and  _218
REMARK   94  A    between atoms: _220  and  _222
REMARK   95  A    between atoms: _222  and  _223
REMARK   96  A    between atoms: _222  and  _225
REMARK   97  A    between atoms: _225  and  _226
REMARK   98  A    between atoms: _228  and  _230
REMARK   99  A    between atoms: _230  and  _231
REMARK  100  A    between atoms: _233  and  _235
REMARK  101  A    between atoms: _235  and  _236
REMARK  102  A    between atoms: _235  and  _238
REMARK  103  A    between atoms: _238  and  _239
REMARK  104  A    between atoms: _240  and  _242
REMARK  105  A    between atoms: _242  and  _243
REMARK  106  A    between atoms: _246  and  _248
REMARK  107  A    between atoms: _248  and  _249
REMARK  108  A    between atoms: _248  and  _251
REMARK  109  A    between atoms: _251  and  _252
REMARK  110  A    between atoms: _252  and  _253
REMARK  111  A    between atoms: _258  and  _260
REMARK  112  A    between atoms: _260  and  _261
REMARK  113  A    between atoms: _260  and  _263
REMARK  114  A    between atoms: _263  and  _264
REMARK  115  A    between atoms: _264  and  _265
REMARK  116  A    between atoms: _265  and  _266
REMARK  117  A    between atoms: _266  and  _267
REMARK  118  A    between atoms: _272  and  _273
REMARK  119  A    between atoms: _278  and  _280
REMARK  120  A    between atoms: _280  and  _281
REMARK  121  A    between atoms: _283  and  _285
REMARK  122  A    between atoms: _285  and  _286
REMARK  123  A    between atoms: _285  and  _288
REMARK  124  A    between atoms: _291  and  _293
REMARK  125  A    between atoms: _293  and  _294
REMARK  126  A    between atoms: _293  and  _296
REMARK  127  A    between atoms: _296  and  _297
REMARK  128  A    between atoms: _302  and  _303
REMARK                            x       y       z     vdW  Elec       q    Type
REMARK                         _______ _______ _______ _____ _____    ______ ____
ROOT
ATOM      1  O   HOH     1      42.264 -12.797  28.997  0.00  0.00    +0.000 OA
ENDROOT
TORSDOF 0
