REMARK  Name = ../refined-set-2016/4gah/4gah_pocket.pdb
REMARK  232 active torsions:
REMARK  status: ('A' for Active; 'I' for Inactive)
REMARK    1  A    between atoms: _1  and  _3
REMARK    2  A    between atoms: _3  and  _4
REMARK    3  A    between atoms: _3  and  _6
REMARK    4  A    between atoms: _6  and  _7
REMARK    5  A    between atoms: _7  and  _8
REMARK    6  A    between atoms: _8  and  _9
REMARK    7  A    between atoms: _18  and  _20
REMARK    8  A    between atoms: _20  and  _21
REMARK    9  A    between atoms: _20  and  _23
REMARK   10  A    between atoms: _23  and  _24
REMARK   11  A    between atoms: _27  and  _29
REMARK   12  A    between atoms: _29  and  _30
REMARK   13  A    between atoms: _29  and  _32
REMARK   14  A    between atoms: _32  and  _33
REMARK   15  A    between atoms: _39  and  _41
REMARK   16  A    between atoms: _41  and  _42
REMARK   17  A    between atoms: _41  and  _44
REMARK   18  A    between atoms: _44  and  _45
REMARK   19  A    between atoms: _48  and  _50
REMARK   20  A    between atoms: _50  and  _51
REMARK   21  A    between atoms: _50  and  _53
REMARK   22  A    between atoms: _53  and  _54
REMARK   23  A    between atoms: _57  and  _59
REMARK   24  A    between atoms: _59  and  _60
REMARK   25  A    between atoms: _59  and  _62
REMARK   26  A    between atoms: _62  and  _63
REMARK   27  A    between atoms: _66  and  _68
REMARK   28  A    between atoms: _68  and  _69
REMARK   29  A    between atoms: _72  and  _74
REMARK   30  A    between atoms: _74  and  _75
REMARK   31  A    between atoms: _74  and  _77
REMARK   32  A    between atoms: _77  and  _78
REMARK   33  A    between atoms: _81  and  _83
REMARK   34  A    between atoms: _83  and  _84
REMARK   35  A    between atoms: _83  and  _86
REMARK   36  A    between atoms: _89  and  _91
REMARK   37  A    between atoms: _91  and  _92
REMARK   38  A    between atoms: _94  and  _96
REMARK   39  A    between atoms: _96  and  _97
REMARK   40  A    between atoms: _96  and  _99
REMARK   41  A    between atoms: _99  and  _100
REMARK   42  A    between atoms: _100  and  _101
REMARK   43  A    between atoms: _103  and  _105
REMARK   44  A    between atoms: _105  and  _106
REMARK   45  A    between atoms: _105  and  _108
REMARK   46  A    between atoms: _108  and  _109
REMARK   47  A    between atoms: _109  and  _110
REMARK   48  A    between atoms: _112  and  _114
REMARK   49  A    between atoms: _114  and  _115
REMARK   50  A    between atoms: _117  and  _119
REMARK   51  A    between atoms: _119  and  _120
REMARK   52  A    between atoms: _119  and  _122
REMARK   53  A    between atoms: _122  and  _123
REMARK   54  A    between atoms: _126  and  _128
REMARK   55  A    between atoms: _128  and  _129
REMARK   56  A    between atoms: _128  and  _131
REMARK   57  A    between atoms: _134  and  _136
REMARK   58  A    between atoms: _136  and  _137
REMARK   59  A    between atoms: _136  and  _139
REMARK   60  A    between atoms: _139  and  _140
REMARK   61  A    between atoms: _140  and  _141
REMARK   62  A    between atoms: _143  and  _145
REMARK   63  A    between atoms: _145  and  _146
REMARK   64  A    between atoms: _145  and  _148
REMARK   65  A    between atoms: _148  and  _149
REMARK   66  A    between atoms: _152  and  _154
REMARK   67  A    between atoms: _154  and  _155
REMARK   68  A    between atoms: _158  and  _160
REMARK   69  A    between atoms: _160  and  _161
REMARK   70  A    between atoms: _160  and  _163
REMARK   71  A    between atoms: _163  and  _164
REMARK   72  A    between atoms: _169  and  _171
REMARK   73  A    between atoms: _171  and  _172
REMARK   74  A    between atoms: _171  and  _174
REMARK   75  A    between atoms: _174  and  _175
REMARK   76  A    between atoms: _178  and  _180
REMARK   77  A    between atoms: _180  and  _181
REMARK   78  A    between atoms: _180  and  _183
REMARK   79  A    between atoms: _183  and  _184
REMARK   80  A    between atoms: _184  and  _185
REMARK   81  A    between atoms: _188  and  _190
REMARK   82  A    between atoms: _190  and  _191
REMARK   83  A    between atoms: _193  and  _195
REMARK   84  A    between atoms: _195  and  _196
REMARK   85  A    between atoms: _195  and  _198
REMARK   86  A    between atoms: _198  and  _199
REMARK   87  A    between atoms: _199  and  _200
REMARK   88  A    between atoms: _200  and  _201
REMARK   89  A    between atoms: _210  and  _212
REMARK   90  A    between atoms: _212  and  _213
REMARK   91  A    between atoms: _212  and  _215
REMARK   92  A    between atoms: _215  and  _216
REMARK   93  A    between atoms: _216  and  _217
REMARK   94  A    between atoms: _217  and  _218
REMARK   95  A    between atoms: _218  and  _219
REMARK   96  A    between atoms: _223  and  _225
REMARK   97  A    between atoms: _225  and  _226
REMARK   98  A    between atoms: _225  and  _228
REMARK   99  A    between atoms: _228  and  _229
REMARK  100  A    between atoms: _235  and  _237
REMARK  101  A    between atoms: _237  and  _238
REMARK  102  A    between atoms: _237  and  _240
REMARK  103  A    between atoms: _240  and  _241
REMARK  104  A    between atoms: _247  and  _249
REMARK  105  A    between atoms: _249  and  _250
REMARK  106  A    between atoms: _249  and  _252
REMARK  107  A    between atoms: _252  and  _253
REMARK  108  A    between atoms: _256  and  _258
REMARK  109  A    between atoms: _258  and  _259
REMARK  110  A    between atoms: _258  and  _261
REMARK  111  A    between atoms: _261  and  _262
REMARK  112  A    between atoms: _268  and  _270
REMARK  113  A    between atoms: _270  and  _271
REMARK  114  A    between atoms: _270  and  _273
REMARK  115  A    between atoms: _273  and  _274
REMARK  116  A    between atoms: _277  and  _279
REMARK  117  A    between atoms: _279  and  _280
REMARK  118  A    between atoms: _279  and  _282
REMARK  119  A    between atoms: _282  and  _283
REMARK  120  A    between atoms: _283  and  _284
REMARK  121  A    between atoms: _284  and  _285
REMARK  122  A    between atoms: _285  and  _286
REMARK  123  A    between atoms: _290  and  _292
REMARK  124  A    between atoms: _292  and  _293
REMARK  125  A    between atoms: _292  and  _295
REMARK  126  A    between atoms: _295  and  _296
REMARK  127  A    between atoms: _299  and  _301
REMARK  128  A    between atoms: _301  and  _302
REMARK  129  A    between atoms: _301  and  _304
REMARK  130  A    between atoms: _304  and  _305
REMARK  131  A    between atoms: _310  and  _312
REMARK  132  A    between atoms: _312  and  _313
REMARK  133  A    between atoms: _312  and  _315
REMARK  134  A    between atoms: _315  and  _316
REMARK  135  A    between atoms: _316  and  _317
REMARK  136  A    between atoms: _317  and  _318
REMARK  137  A    between atoms: _318  and  _319
REMARK  138  A    between atoms: _323  and  _325
REMARK  139  A    between atoms: _325  and  _326
REMARK  140  A    between atoms: _325  and  _328
REMARK  141  A    between atoms: _328  and  _329
REMARK  142  A    between atoms: _331  and  _333
REMARK  143  A    between atoms: _333  and  _334
REMARK  144  A    between atoms: _333  and  _336
REMARK  145  A    between atoms: _336  and  _337
REMARK  146  A    between atoms: _340  and  _342
REMARK  147  A    between atoms: _342  and  _343
REMARK  148  A    between atoms: _342  and  _345
REMARK  149  A    between atoms: _345  and  _346
REMARK  150  A    between atoms: _346  and  _347
REMARK  151  A    between atoms: _350  and  _352
REMARK  152  A    between atoms: _352  and  _353
REMARK  153  A    between atoms: _356  and  _357
REMARK  154  A    between atoms: _363  and  _364
REMARK  155  A    between atoms: _369  and  _371
REMARK  156  A    between atoms: _371  and  _372
REMARK  157  A    between atoms: _371  and  _374
REMARK  158  A    between atoms: _374  and  _375
REMARK  159  A    between atoms: _381  and  _383
REMARK  160  A    between atoms: _383  and  _384
REMARK  161  A    between atoms: _383  and  _386
REMARK  162  A    between atoms: _386  and  _387
REMARK  163  A    between atoms: _390  and  _392
REMARK  164  A    between atoms: _392  and  _393
REMARK  165  A    between atoms: _392  and  _395
REMARK  166  A    between atoms: _395  and  _396
REMARK  167  A    between atoms: _401  and  _403
REMARK  168  A    between atoms: _403  and  _404
REMARK  169  A    between atoms: _406  and  _408
REMARK  170  A    between atoms: _408  and  _409
REMARK  171  A    between atoms: _411  and  _413
REMARK  172  A    between atoms: _413  and  _414
REMARK  173  A    between atoms: _417  and  _419
REMARK  174  A    between atoms: _419  and  _420
REMARK  175  A    between atoms: _419  and  _422
REMARK  176  A    between atoms: _422  and  _423
REMARK  177  A    between atoms: _426  and  _428
REMARK  178  A    between atoms: _428  and  _429
REMARK  179  A    between atoms: _432  and  _434
REMARK  180  A    between atoms: _434  and  _435
REMARK  181  A    between atoms: _434  and  _437
REMARK  182  A    between atoms: _437  and  _438
REMARK  183  A    between atoms: _443  and  _445
REMARK  184  A    between atoms: _445  and  _446
REMARK  185  A    between atoms: _445  and  _448
REMARK  186  A    between atoms: _448  and  _449
REMARK  187  A    between atoms: _452  and  _454
REMARK  188  A    between atoms: _454  and  _455
REMARK  189  A    between atoms: _454  and  _457
REMARK  190  A    between atoms: _457  and  _458
REMARK  191  A    between atoms: _463  and  _465
REMARK  192  A    between atoms: _465  and  _466
REMARK  193  A    between atoms: _465  and  _468
REMARK  194  A    between atoms: _468  and  _469
REMARK  195  A    between atoms: _474  and  _475
REMARK  196  A    between atoms: _477  and  _479
REMARK  197  A    between atoms: _479  and  _480
REMARK  198  A    between atoms: _479  and  _482
REMARK  199  A    between atoms: _482  and  _483
REMARK  200  A    between atoms: _483  and  _484
REMARK  201  A    between atoms: _484  and  _485
REMARK  202  A    between atoms: _485  and  _486
REMARK  203  A    between atoms: _490  and  _492
REMARK  204  A    between atoms: _492  and  _493
REMARK  205  A    between atoms: _492  and  _495
REMARK  206  A    between atoms: _495  and  _496
REMARK  207  A    between atoms: _496  and  _497
REMARK  208  A    between atoms: _497  and  _498
REMARK  209  A    between atoms: _508  and  _509
REMARK  210  A    between atoms: _514  and  _516
REMARK  211  A    between atoms: _516  and  _517
REMARK  212  A    between atoms: _516  and  _519
REMARK  213  A    between atoms: _519  and  _520
REMARK  214  A    between atoms: _524  and  _525
REMARK  215  A    between atoms: _530  and  _532
REMARK  216  A    between atoms: _532  and  _533
REMARK  217  A    between atoms: _532  and  _535
REMARK  218  A    between atoms: _535  and  _536
REMARK  219  A    between atoms: _539  and  _541
REMARK  220  A    between atoms: _541  and  _542
REMARK  221  A    between atoms: _541  and  _544
REMARK  222  A    between atoms: _544  and  _545
REMARK  223  A    between atoms: _550  and  _551
REMARK  224  A    between atoms: _553  and  _555
REMARK  225  A    between atoms: _555  and  _556
REMARK  226  A    between atoms: _555  and  _558
REMARK  227  A    between atoms: _558  and  _559
REMARK  228  A    between atoms: _561  and  _563
REMARK  229  A    between atoms: _563  and  _564
REMARK  230  A    between atoms: _563  and  _566
REMARK  231  A    between atoms: _566  and  _567
REMARK  232  A    between atoms: _567  and  _568
REMARK                            x       y       z     vdW  Elec       q    Type
REMARK                         _______ _______ _______ _____ _____    ______ ____
ROOT
ATOM      1  NE  ARG A   1      13.727  72.628  41.822  0.00  0.00    -0.265 N 
ATOM      2  CZ  ARG A   1      14.925  72.047  41.719  0.00  0.00    +0.342 C 
ATOM      3  NH2 ARG A   1      15.203  70.952  42.428  0.00  0.00    -0.292 N 
ATOM      4 HH21 ARG A   1      14.486  70.548  43.064  0.00  0.00    +0.255 HD
ATOM      5 HH22 ARG A   1      16.137  70.502  42.345  0.00  0.00    +0.255 HD
ATOM      6  NH1 ARG A   1      15.851  72.561  40.913  0.00  0.00    -0.292 N 
ATOM      7 HH11 ARG A   1      16.783  72.106  40.835  0.00  0.00    +0.255 HD
ATOM      8 HH12 ARG A   1      15.643  73.418  40.361  0.00  0.00    +0.255 HD
ATOM      9  HE  ARG A   1      13.552  73.489  41.266  0.00  0.00    +0.259 HD
ENDROOT
BRANCH   1  10
ATOM     10  CD  ARG A   1      12.644  72.125  42.672  0.00  0.00    +0.174 C 
BRANCH  10  11
ATOM     11  CG  ARG A   1      11.449  73.063  42.823  0.00  0.00    +0.045 C 
BRANCH  11  12
ATOM     12  CB  ARG A   1      11.511  73.802  44.164  0.00  0.00    +0.029 C 
BRANCH  12  13
ATOM     13  CA  ARG A   1      12.087  75.214  44.058  0.00  0.00    +0.133 C 
BRANCH  13  14
ATOM     14  N   ARG A   1      12.241  75.846  45.380  0.00  0.00    -0.239 NA
ATOM     15  H   ARG A   1      12.001  76.852  45.491  0.00  0.00    +0.142 HD
ENDBRANCH  13  14
BRANCH  13  16
ATOM     16  C   ARG A   1      11.197  75.967  43.089  0.00  0.00    +0.224 C 
ATOM     17  O   ARG A   1      11.486  77.090  42.686  0.00  0.00    -0.287 OA
ENDBRANCH  13  16
ENDBRANCH  12  13
ENDBRANCH  11  12
ENDBRANCH  10  11
ENDBRANCH   1  10
TORSDOF 6
REMARK  Name = ../refined-set-2016/4gah/4gah_pocket.pdb
REMARK  232 active torsions:
REMARK  status: ('A' for Active; 'I' for Inactive)
REMARK    1  A    between atoms: _1  and  _3
REMARK    2  A    between atoms: _3  and  _4
REMARK    3  A    between atoms: _3  and  _6
REMARK    4  A    between atoms: _6  and  _7
REMARK    5  A    between atoms: _7  and  _8
REMARK    6  A    between atoms: _8  and  _9
REMARK    7  A    between atoms: _18  and  _20
REMARK    8  A    between atoms: _20  and  _21
REMARK    9  A    between atoms: _20  and  _23
REMARK   10  A    between atoms: _23  and  _24
REMARK   11  A    between atoms: _27  and  _29
REMARK   12  A    between atoms: _29  and  _30
REMARK   13  A    between atoms: _29  and  _32
REMARK   14  A    between atoms: _32  and  _33
REMARK   15  A    between atoms: _39  and  _41
REMARK   16  A    between atoms: _41  and  _42
REMARK   17  A    between atoms: _41  and  _44
REMARK   18  A    between atoms: _44  and  _45
REMARK   19  A    between atoms: _48  and  _50
REMARK   20  A    between atoms: _50  and  _51
REMARK   21  A    between atoms: _50  and  _53
REMARK   22  A    between atoms: _53  and  _54
REMARK   23  A    between atoms: _57  and  _59
REMARK   24  A    between atoms: _59  and  _60
REMARK   25  A    between atoms: _59  and  _62
REMARK   26  A    between atoms: _62  and  _63
REMARK   27  A    between atoms: _66  and  _68
REMARK   28  A    between atoms: _68  and  _69
REMARK   29  A    between atoms: _72  and  _74
REMARK   30  A    between atoms: _74  and  _75
REMARK   31  A    between atoms: _74  and  _77
REMARK   32  A    between atoms: _77  and  _78
REMARK   33  A    between atoms: _81  and  _83
REMARK   34  A    between atoms: _83  and  _84
REMARK   35  A    between atoms: _83  and  _86
REMARK   36  A    between atoms: _89  and  _91
REMARK   37  A    between atoms: _91  and  _92
REMARK   38  A    between atoms: _94  and  _96
REMARK   39  A    between atoms: _96  and  _97
REMARK   40  A    between atoms: _96  and  _99
REMARK   41  A    between atoms: _99  and  _100
REMARK   42  A    between atoms: _100  and  _101
REMARK   43  A    between atoms: _103  and  _105
REMARK   44  A    between atoms: _105  and  _106
REMARK   45  A    between atoms: _105  and  _108
REMARK   46  A    between atoms: _108  and  _109
REMARK   47  A    between atoms: _109  and  _110
REMARK   48  A    between atoms: _112  and  _114
REMARK   49  A    between atoms: _114  and  _115
REMARK   50  A    between atoms: _117  and  _119
REMARK   51  A    between atoms: _119  and  _120
REMARK   52  A    between atoms: _119  and  _122
REMARK   53  A    between atoms: _122  and  _123
REMARK   54  A    between atoms: _126  and  _128
REMARK   55  A    between atoms: _128  and  _129
REMARK   56  A    between atoms: _128  and  _131
REMARK   57  A    between atoms: _134  and  _136
REMARK   58  A    between atoms: _136  and  _137
REMARK   59  A    between atoms: _136  and  _139
REMARK   60  A    between atoms: _139  and  _140
REMARK   61  A    between atoms: _140  and  _141
REMARK   62  A    between atoms: _143  and  _145
REMARK   63  A    between atoms: _145  and  _146
REMARK   64  A    between atoms: _145  and  _148
REMARK   65  A    between atoms: _148  and  _149
REMARK   66  A    between atoms: _152  and  _154
REMARK   67  A    between atoms: _154  and  _155
REMARK   68  A    between atoms: _158  and  _160
REMARK   69  A    between atoms: _160  and  _161
REMARK   70  A    between atoms: _160  and  _163
REMARK   71  A    between atoms: _163  and  _164
REMARK   72  A    between atoms: _169  and  _171
REMARK   73  A    between atoms: _171  and  _172
REMARK   74  A    between atoms: _171  and  _174
REMARK   75  A    between atoms: _174  and  _175
REMARK   76  A    between atoms: _178  and  _180
REMARK   77  A    between atoms: _180  and  _181
REMARK   78  A    between atoms: _180  and  _183
REMARK   79  A    between atoms: _183  and  _184
REMARK   80  A    between atoms: _184  and  _185
REMARK   81  A    between atoms: _188  and  _190
REMARK   82  A    between atoms: _190  and  _191
REMARK   83  A    between atoms: _193  and  _195
REMARK   84  A    between atoms: _195  and  _196
REMARK   85  A    between atoms: _195  and  _198
REMARK   86  A    between atoms: _198  and  _199
REMARK   87  A    between atoms: _199  and  _200
REMARK   88  A    between atoms: _200  and  _201
REMARK   89  A    between atoms: _210  and  _212
REMARK   90  A    between atoms: _212  and  _213
REMARK   91  A    between atoms: _212  and  _215
REMARK   92  A    between atoms: _215  and  _216
REMARK   93  A    between atoms: _216  and  _217
REMARK   94  A    between atoms: _217  and  _218
REMARK   95  A    between atoms: _218  and  _219
REMARK   96  A    between atoms: _223  and  _225
REMARK   97  A    between atoms: _225  and  _226
REMARK   98  A    between atoms: _225  and  _228
REMARK   99  A    between atoms: _228  and  _229
REMARK  100  A    between atoms: _235  and  _237
REMARK  101  A    between atoms: _237  and  _238
REMARK  102  A    between atoms: _237  and  _240
REMARK  103  A    between atoms: _240  and  _241
REMARK  104  A    between atoms: _247  and  _249
REMARK  105  A    between atoms: _249  and  _250
REMARK  106  A    between atoms: _249  and  _252
REMARK  107  A    between atoms: _252  and  _253
REMARK  108  A    between atoms: _256  and  _258
REMARK  109  A    between atoms: _258  and  _259
REMARK  110  A    between atoms: _258  and  _261
REMARK  111  A    between atoms: _261  and  _262
REMARK  112  A    between atoms: _268  and  _270
REMARK  113  A    between atoms: _270  and  _271
REMARK  114  A    between atoms: _270  and  _273
REMARK  115  A    between atoms: _273  and  _274
REMARK  116  A    between atoms: _277  and  _279
REMARK  117  A    between atoms: _279  and  _280
REMARK  118  A    between atoms: _279  and  _282
REMARK  119  A    between atoms: _282  and  _283
REMARK  120  A    between atoms: _283  and  _284
REMARK  121  A    between atoms: _284  and  _285
REMARK  122  A    between atoms: _285  and  _286
REMARK  123  A    between atoms: _290  and  _292
REMARK  124  A    between atoms: _292  and  _293
REMARK  125  A    between atoms: _292  and  _295
REMARK  126  A    between atoms: _295  and  _296
REMARK  127  A    between atoms: _299  and  _301
REMARK  128  A    between atoms: _301  and  _302
REMARK  129  A    between atoms: _301  and  _304
REMARK  130  A    between atoms: _304  and  _305
REMARK  131  A    between atoms: _310  and  _312
REMARK  132  A    between atoms: _312  and  _313
REMARK  133  A    between atoms: _312  and  _315
REMARK  134  A    between atoms: _315  and  _316
REMARK  135  A    between atoms: _316  and  _317
REMARK  136  A    between atoms: _317  and  _318
REMARK  137  A    between atoms: _318  and  _319
REMARK  138  A    between atoms: _323  and  _325
REMARK  139  A    between atoms: _325  and  _326
REMARK  140  A    between atoms: _325  and  _328
REMARK  141  A    between atoms: _328  and  _329
REMARK  142  A    between atoms: _331  and  _333
REMARK  143  A    between atoms: _333  and  _334
REMARK  144  A    between atoms: _333  and  _336
REMARK  145  A    between atoms: _336  and  _337
REMARK  146  A    between atoms: _340  and  _342
REMARK  147  A    between atoms: _342  and  _343
REMARK  148  A    between atoms: _342  and  _345
REMARK  149  A    between atoms: _345  and  _346
REMARK  150  A    between atoms: _346  and  _347
REMARK  151  A    between atoms: _350  and  _352
REMARK  152  A    between atoms: _352  and  _353
REMARK  153  A    between atoms: _356  and  _357
REMARK  154  A    between atoms: _363  and  _364
REMARK  155  A    between atoms: _369  and  _371
REMARK  156  A    between atoms: _371  and  _372
REMARK  157  A    between atoms: _371  and  _374
REMARK  158  A    between atoms: _374  and  _375
REMARK  159  A    between atoms: _381  and  _383
REMARK  160  A    between atoms: _383  and  _384
REMARK  161  A    between atoms: _383  and  _386
REMARK  162  A    between atoms: _386  and  _387
REMARK  163  A    between atoms: _390  and  _392
REMARK  164  A    between atoms: _392  and  _393
REMARK  165  A    between atoms: _392  and  _395
REMARK  166  A    between atoms: _395  and  _396
REMARK  167  A    between atoms: _401  and  _403
REMARK  168  A    between atoms: _403  and  _404
REMARK  169  A    between atoms: _406  and  _408
REMARK  170  A    between atoms: _408  and  _409
REMARK  171  A    between atoms: _411  and  _413
REMARK  172  A    between atoms: _413  and  _414
REMARK  173  A    between atoms: _417  and  _419
REMARK  174  A    between atoms: _419  and  _420
REMARK  175  A    between atoms: _419  and  _422
REMARK  176  A    between atoms: _422  and  _423
REMARK  177  A    between atoms: _426  and  _428
REMARK  178  A    between atoms: _428  and  _429
REMARK  179  A    between atoms: _432  and  _434
REMARK  180  A    between atoms: _434  and  _435
REMARK  181  A    between atoms: _434  and  _437
REMARK  182  A    between atoms: _437  and  _438
REMARK  183  A    between atoms: _443  and  _445
REMARK  184  A    between atoms: _445  and  _446
REMARK  185  A    between atoms: _445  and  _448
REMARK  186  A    between atoms: _448  and  _449
REMARK  187  A    between atoms: _452  and  _454
REMARK  188  A    between atoms: _454  and  _455
REMARK  189  A    between atoms: _454  and  _457
REMARK  190  A    between atoms: _457  and  _458
REMARK  191  A    between atoms: _463  and  _465
REMARK  192  A    between atoms: _465  and  _466
REMARK  193  A    between atoms: _465  and  _468
REMARK  194  A    between atoms: _468  and  _469
REMARK  195  A    between atoms: _474  and  _475
REMARK  196  A    between atoms: _477  and  _479
REMARK  197  A    between atoms: _479  and  _480
REMARK  198  A    between atoms: _479  and  _482
REMARK  199  A    between atoms: _482  and  _483
REMARK  200  A    between atoms: _483  and  _484
REMARK  201  A    between atoms: _484  and  _485
REMARK  202  A    between atoms: _485  and  _486
REMARK  203  A    between atoms: _490  and  _492
REMARK  204  A    between atoms: _492  and  _493
REMARK  205  A    between atoms: _492  and  _495
REMARK  206  A    between atoms: _495  and  _496
REMARK  207  A    between atoms: _496  and  _497
REMARK  208  A    between atoms: _497  and  _498
REMARK  209  A    between atoms: _508  and  _509
REMARK  210  A    between atoms: _514  and  _516
REMARK  211  A    between atoms: _516  and  _517
REMARK  212  A    between atoms: _516  and  _519
REMARK  213  A    between atoms: _519  and  _520
REMARK  214  A    between atoms: _524  and  _525
REMARK  215  A    between atoms: _530  and  _532
REMARK  216  A    between atoms: _532  and  _533
REMARK  217  A    between atoms: _532  and  _535
REMARK  218  A    between atoms: _535  and  _536
REMARK  219  A    between atoms: _539  and  _541
REMARK  220  A    between atoms: _541  and  _542
REMARK  221  A    between atoms: _541  and  _544
REMARK  222  A    between atoms: _544  and  _545
REMARK  223  A    between atoms: _550  and  _551
REMARK  224  A    between atoms: _553  and  _555
REMARK  225  A    between atoms: _555  and  _556
REMARK  226  A    between atoms: _555  and  _558
REMARK  227  A    between atoms: _558  and  _559
REMARK  228  A    between atoms: _561  and  _563
REMARK  229  A    between atoms: _563  and  _564
REMARK  230  A    between atoms: _563  and  _566
REMARK  231  A    between atoms: _566  and  _567
REMARK  232  A    between atoms: _567  and  _568
REMARK                            x       y       z     vdW  Elec       q    Type
REMARK                         _______ _______ _______ _____ _____    ______ ____
ROOT
ATOM      1  CA  PHE A   2      15.836  67.918  48.678  0.00  0.00    +0.153 C 
ENDROOT
BRANCH   1   4
ATOM      2  C   LEU A   1      14.973  69.967  47.637  0.00  0.00    +0.238 C 
ATOM      3  O   LEU A   1      14.478  70.395  48.694  0.00  0.00    -0.274 OA
ATOM      4  N   PHE A   2      15.641  68.818  47.551  0.00  0.00    -0.297 N 
ATOM      5  H   PHE A   2      16.044  68.550  46.631  0.00  0.00    +0.150 HD
BRANCH   2   6
ATOM      6  CA  LEU A   1      14.849  70.747  46.327  0.00  0.00    +0.145 C 
BRANCH   6   7
ATOM      7  N   LEU A   1      13.453  71.069  46.055  0.00  0.00    -0.238 NA
ATOM      8  H   LEU A   1      13.176  72.064  45.935  0.00  0.00    +0.142 HD
ENDBRANCH   6   7
BRANCH   6   9
ATOM      9  CB  LEU A   1      15.699  72.008  46.413  0.00  0.00    +0.026 C 
BRANCH   9  10
ATOM     10  CG  LEU A   1      17.053  71.993  45.690  0.00  0.00    +0.002 C 
ATOM     11  CD2 LEU A   1      17.971  73.133  46.166  0.00  0.00    +0.000 C 
ATOM     12  CD1 LEU A   1      17.754  70.652  45.820  0.00  0.00    +0.000 C 
ENDBRANCH   9  10
ENDBRANCH   6   9
ENDBRANCH   2   6
ENDBRANCH   1   4
BRANCH   1  13
ATOM     13  C   PHE A   2      16.439  68.623  49.912  0.00  0.00    +0.241 C 
ATOM     14  O   PHE A   2      15.958  68.447  51.031  0.00  0.00    -0.273 OA
ATOM     15  N   THR A   3      17.490  69.410  49.712  0.00  0.00    -0.296 N 
ATOM     16  H   THR A   3      17.818  69.604  48.744  0.00  0.00    +0.150 HD
BRANCH  15  17
ATOM     17  CA  THR A   3      18.185  70.002  50.850  0.00  0.00    +0.164 C 
BRANCH  17  18
ATOM     18  C   THR A   3      17.454  71.196  51.442  0.00  0.00    +0.229 C 
ATOM     19  O   THR A   3      17.888  71.757  52.438  0.00  0.00    -0.286 OA
ENDBRANCH  17  18
BRANCH  17  20
ATOM     20  CB  THR A   3      19.604  70.448  50.493  0.00  0.00    +0.136 C 
ATOM     21  CG2 THR A   3      20.467  69.244  50.183  0.00  0.00    +0.034 C 
BRANCH  20  22
ATOM     22  OG1 THR A   3      19.561  71.325  49.357  0.00  0.00    -0.382 OA
ATOM     23  HG1 THR A   3      19.011  72.119  49.575  0.00  0.00    +0.210 HD
ENDBRANCH  20  22
ENDBRANCH  17  20
ENDBRANCH  15  17
ENDBRANCH   1  13
BRANCH   1  24
ATOM     24  CB  PHE A   2      16.710  66.739  48.230  0.00  0.00    +0.055 C 
BRANCH  24  25
ATOM     25  CG  PHE A   2      16.936  65.696  49.289  0.00  0.00    -0.020 A 
ATOM     26  CD2 PHE A   2      15.888  65.237  50.074  0.00  0.00    -0.004 A 
ATOM     27  CE2 PHE A   2      16.102  64.275  51.038  0.00  0.00    -0.000 A 
ATOM     28  CZ  PHE A   2      17.369  63.751  51.219  0.00  0.00    -0.000 A 
ATOM     29  CE1 PHE A   2      18.410  64.190  50.436  0.00  0.00    -0.000 A 
ATOM     30  CD1 PHE A   2      18.192  65.154  49.478  0.00  0.00    -0.004 A 
ENDBRANCH  24  25
ENDBRANCH   1  24
TORSDOF 12
REMARK  Name = ../refined-set-2016/4gah/4gah_pocket.pdb
REMARK  232 active torsions:
REMARK  status: ('A' for Active; 'I' for Inactive)
REMARK    1  A    between atoms: _1  and  _3
REMARK    2  A    between atoms: _3  and  _4
REMARK    3  A    between atoms: _3  and  _6
REMARK    4  A    between atoms: _6  and  _7
REMARK    5  A    between atoms: _7  and  _8
REMARK    6  A    between atoms: _8  and  _9
REMARK    7  A    between atoms: _18  and  _20
REMARK    8  A    between atoms: _20  and  _21
REMARK    9  A    between atoms: _20  and  _23
REMARK   10  A    between atoms: _23  and  _24
REMARK   11  A    between atoms: _27  and  _29
REMARK   12  A    between atoms: _29  and  _30
REMARK   13  A    between atoms: _29  and  _32
REMARK   14  A    between atoms: _32  and  _33
REMARK   15  A    between atoms: _39  and  _41
REMARK   16  A    between atoms: _41  and  _42
REMARK   17  A    between atoms: _41  and  _44
REMARK   18  A    between atoms: _44  and  _45
REMARK   19  A    between atoms: _48  and  _50
REMARK   20  A    between atoms: _50  and  _51
REMARK   21  A    between atoms: _50  and  _53
REMARK   22  A    between atoms: _53  and  _54
REMARK   23  A    between atoms: _57  and  _59
REMARK   24  A    between atoms: _59  and  _60
REMARK   25  A    between atoms: _59  and  _62
REMARK   26  A    between atoms: _62  and  _63
REMARK   27  A    between atoms: _66  and  _68
REMARK   28  A    between atoms: _68  and  _69
REMARK   29  A    between atoms: _72  and  _74
REMARK   30  A    between atoms: _74  and  _75
REMARK   31  A    between atoms: _74  and  _77
REMARK   32  A    between atoms: _77  and  _78
REMARK   33  A    between atoms: _81  and  _83
REMARK   34  A    between atoms: _83  and  _84
REMARK   35  A    between atoms: _83  and  _86
REMARK   36  A    between atoms: _89  and  _91
REMARK   37  A    between atoms: _91  and  _92
REMARK   38  A    between atoms: _94  and  _96
REMARK   39  A    between atoms: _96  and  _97
REMARK   40  A    between atoms: _96  and  _99
REMARK   41  A    between atoms: _99  and  _100
REMARK   42  A    between atoms: _100  and  _101
REMARK   43  A    between atoms: _103  and  _105
REMARK   44  A    between atoms: _105  and  _106
REMARK   45  A    between atoms: _105  and  _108
REMARK   46  A    between atoms: _108  and  _109
REMARK   47  A    between atoms: _109  and  _110
REMARK   48  A    between atoms: _112  and  _114
REMARK   49  A    between atoms: _114  and  _115
REMARK   50  A    between atoms: _117  and  _119
REMARK   51  A    between atoms: _119  and  _120
REMARK   52  A    between atoms: _119  and  _122
REMARK   53  A    between atoms: _122  and  _123
REMARK   54  A    between atoms: _126  and  _128
REMARK   55  A    between atoms: _128  and  _129
REMARK   56  A    between atoms: _128  and  _131
REMARK   57  A    between atoms: _134  and  _136
REMARK   58  A    between atoms: _136  and  _137
REMARK   59  A    between atoms: _136  and  _139
REMARK   60  A    between atoms: _139  and  _140
REMARK   61  A    between atoms: _140  and  _141
REMARK   62  A    between atoms: _143  and  _145
REMARK   63  A    between atoms: _145  and  _146
REMARK   64  A    between atoms: _145  and  _148
REMARK   65  A    between atoms: _148  and  _149
REMARK   66  A    between atoms: _152  and  _154
REMARK   67  A    between atoms: _154  and  _155
REMARK   68  A    between atoms: _158  and  _160
REMARK   69  A    between atoms: _160  and  _161
REMARK   70  A    between atoms: _160  and  _163
REMARK   71  A    between atoms: _163  and  _164
REMARK   72  A    between atoms: _169  and  _171
REMARK   73  A    between atoms: _171  and  _172
REMARK   74  A    between atoms: _171  and  _174
REMARK   75  A    between atoms: _174  and  _175
REMARK   76  A    between atoms: _178  and  _180
REMARK   77  A    between atoms: _180  and  _181
REMARK   78  A    between atoms: _180  and  _183
REMARK   79  A    between atoms: _183  and  _184
REMARK   80  A    between atoms: _184  and  _185
REMARK   81  A    between atoms: _188  and  _190
REMARK   82  A    between atoms: _190  and  _191
REMARK   83  A    between atoms: _193  and  _195
REMARK   84  A    between atoms: _195  and  _196
REMARK   85  A    between atoms: _195  and  _198
REMARK   86  A    between atoms: _198  and  _199
REMARK   87  A    between atoms: _199  and  _200
REMARK   88  A    between atoms: _200  and  _201
REMARK   89  A    between atoms: _210  and  _212
REMARK   90  A    between atoms: _212  and  _213
REMARK   91  A    between atoms: _212  and  _215
REMARK   92  A    between atoms: _215  and  _216
REMARK   93  A    between atoms: _216  and  _217
REMARK   94  A    between atoms: _217  and  _218
REMARK   95  A    between atoms: _218  and  _219
REMARK   96  A    between atoms: _223  and  _225
REMARK   97  A    between atoms: _225  and  _226
REMARK   98  A    between atoms: _225  and  _228
REMARK   99  A    between atoms: _228  and  _229
REMARK  100  A    between atoms: _235  and  _237
REMARK  101  A    between atoms: _237  and  _238
REMARK  102  A    between atoms: _237  and  _240
REMARK  103  A    between atoms: _240  and  _241
REMARK  104  A    between atoms: _247  and  _249
REMARK  105  A    between atoms: _249  and  _250
REMARK  106  A    between atoms: _249  and  _252
REMARK  107  A    between atoms: _252  and  _253
REMARK  108  A    between atoms: _256  and  _258
REMARK  109  A    between atoms: _258  and  _259
REMARK  110  A    between atoms: _258  and  _261
REMARK  111  A    between atoms: _261  and  _262
REMARK  112  A    between atoms: _268  and  _270
REMARK  113  A    between atoms: _270  and  _271
REMARK  114  A    between atoms: _270  and  _273
REMARK  115  A    between atoms: _273  and  _274
REMARK  116  A    between atoms: _277  and  _279
REMARK  117  A    between atoms: _279  and  _280
REMARK  118  A    between atoms: _279  and  _282
REMARK  119  A    between atoms: _282  and  _283
REMARK  120  A    between atoms: _283  and  _284
REMARK  121  A    between atoms: _284  and  _285
REMARK  122  A    between atoms: _285  and  _286
REMARK  123  A    between atoms: _290  and  _292
REMARK  124  A    between atoms: _292  and  _293
REMARK  125  A    between atoms: _292  and  _295
REMARK  126  A    between atoms: _295  and  _296
REMARK  127  A    between atoms: _299  and  _301
REMARK  128  A    between atoms: _301  and  _302
REMARK  129  A    between atoms: _301  and  _304
REMARK  130  A    between atoms: _304  and  _305
REMARK  131  A    between atoms: _310  and  _312
REMARK  132  A    between atoms: _312  and  _313
REMARK  133  A    between atoms: _312  and  _315
REMARK  134  A    between atoms: _315  and  _316
REMARK  135  A    between atoms: _316  and  _317
REMARK  136  A    between atoms: _317  and  _318
REMARK  137  A    between atoms: _318  and  _319
REMARK  138  A    between atoms: _323  and  _325
REMARK  139  A    between atoms: _325  and  _326
REMARK  140  A    between atoms: _325  and  _328
REMARK  141  A    between atoms: _328  and  _329
REMARK  142  A    between atoms: _331  and  _333
REMARK  143  A    between atoms: _333  and  _334
REMARK  144  A    between atoms: _333  and  _336
REMARK  145  A    between atoms: _336  and  _337
REMARK  146  A    between atoms: _340  and  _342
REMARK  147  A    between atoms: _342  and  _343
REMARK  148  A    between atoms: _342  and  _345
REMARK  149  A    between atoms: _345  and  _346
REMARK  150  A    between atoms: _346  and  _347
REMARK  151  A    between atoms: _350  and  _352
REMARK  152  A    between atoms: _352  and  _353
REMARK  153  A    between atoms: _356  and  _357
REMARK  154  A    between atoms: _363  and  _364
REMARK  155  A    between atoms: _369  and  _371
REMARK  156  A    between atoms: _371  and  _372
REMARK  157  A    between atoms: _371  and  _374
REMARK  158  A    between atoms: _374  and  _375
REMARK  159  A    between atoms: _381  and  _383
REMARK  160  A    between atoms: _383  and  _384
REMARK  161  A    between atoms: _383  and  _386
REMARK  162  A    between atoms: _386  and  _387
REMARK  163  A    between atoms: _390  and  _392
REMARK  164  A    between atoms: _392  and  _393
REMARK  165  A    between atoms: _392  and  _395
REMARK  166  A    between atoms: _395  and  _396
REMARK  167  A    between atoms: _401  and  _403
REMARK  168  A    between atoms: _403  and  _404
REMARK  169  A    between atoms: _406  and  _408
REMARK  170  A    between atoms: _408  and  _409
REMARK  171  A    between atoms: _411  and  _413
REMARK  172  A    between atoms: _413  and  _414
REMARK  173  A    between atoms: _417  and  _419
REMARK  174  A    between atoms: _419  and  _420
REMARK  175  A    between atoms: _419  and  _422
REMARK  176  A    between atoms: _422  and  _423
REMARK  177  A    between atoms: _426  and  _428
REMARK  178  A    between atoms: _428  and  _429
REMARK  179  A    between atoms: _432  and  _434
REMARK  180  A    between atoms: _434  and  _435
REMARK  181  A    between atoms: _434  and  _437
REMARK  182  A    between atoms: _437  and  _438
REMARK  183  A    between atoms: _443  and  _445
REMARK  184  A    between atoms: _445  and  _446
REMARK  185  A    between atoms: _445  and  _448
REMARK  186  A    between atoms: _448  and  _449
REMARK  187  A    between atoms: _452  and  _454
REMARK  188  A    between atoms: _454  and  _455
REMARK  189  A    between atoms: _454  and  _457
REMARK  190  A    between atoms: _457  and  _458
REMARK  191  A    between atoms: _463  and  _465
REMARK  192  A    between atoms: _465  and  _466
REMARK  193  A    between atoms: _465  and  _468
REMARK  194  A    between atoms: _468  and  _469
REMARK  195  A    between atoms: _474  and  _475
REMARK  196  A    between atoms: _477  and  _479
REMARK  197  A    between atoms: _479  and  _480
REMARK  198  A    between atoms: _479  and  _482
REMARK  199  A    between atoms: _482  and  _483
REMARK  200  A    between atoms: _483  and  _484
REMARK  201  A    between atoms: _484  and  _485
REMARK  202  A    between atoms: _485  and  _486
REMARK  203  A    between atoms: _490  and  _492
REMARK  204  A    between atoms: _492  and  _493
REMARK  205  A    between atoms: _492  and  _495
REMARK  206  A    between atoms: _495  and  _496
REMARK  207  A    between atoms: _496  and  _497
REMARK  208  A    between atoms: _497  and  _498
REMARK  209  A    between atoms: _508  and  _509
REMARK  210  A    between atoms: _514  and  _516
REMARK  211  A    between atoms: _516  and  _517
REMARK  212  A    between atoms: _516  and  _519
REMARK  213  A    between atoms: _519  and  _520
REMARK  214  A    between atoms: _524  and  _525
REMARK  215  A    between atoms: _530  and  _532
REMARK  216  A    between atoms: _532  and  _533
REMARK  217  A    between atoms: _532  and  _535
REMARK  218  A    between atoms: _535  and  _536
REMARK  219  A    between atoms: _539  and  _541
REMARK  220  A    between atoms: _541  and  _542
REMARK  221  A    between atoms: _541  and  _544
REMARK  222  A    between atoms: _544  and  _545
REMARK  223  A    between atoms: _550  and  _551
REMARK  224  A    between atoms: _553  and  _555
REMARK  225  A    between atoms: _555  and  _556
REMARK  226  A    between atoms: _555  and  _558
REMARK  227  A    between atoms: _558  and  _559
REMARK  228  A    between atoms: _561  and  _563
REMARK  229  A    between atoms: _563  and  _564
REMARK  230  A    between atoms: _563  and  _566
REMARK  231  A    between atoms: _566  and  _567
REMARK  232  A    between atoms: _567  and  _568
REMARK                            x       y       z     vdW  Elec       q    Type
REMARK                         _______ _______ _______ _____ _____    ______ ____
ROOT
ATOM      1  CA  THR A   1      23.942  64.899  50.520  0.00  0.00    +0.160 C 
ENDROOT
BRANCH   1   2
ATOM      2  N   THR A   1      24.789  63.910  51.161  0.00  0.00    -0.237 NA
ATOM      3  H   THR A   1      24.422  63.381  51.978  0.00  0.00    +0.142 HD
ENDBRANCH   1   2
BRANCH   1   4
ATOM      4  CB  THR A   1      22.593  64.998  51.210  0.00  0.00    +0.134 C 
ATOM      5  CG2 THR A   1      21.781  66.184  50.638  0.00  0.00    +0.034 C 
BRANCH   4   6
ATOM      6  OG1 THR A   1      21.883  63.779  51.015  0.00  0.00    -0.383 OA
ATOM      7  HG1 THR A   1      22.403  63.030  51.402  0.00  0.00    +0.210 HD
ENDBRANCH   4   6
ENDBRANCH   1   4
BRANCH   1   8
ATOM      8  C   THR A   1      24.567  66.289  50.514  0.00  0.00    +0.227 C 
ATOM      9  O   THR A   1      24.593  66.947  49.475  0.00  0.00    -0.287 OA
ENDBRANCH   1   8
TORSDOF 4
REMARK  Name = ../refined-set-2016/4gah/4gah_pocket.pdb
REMARK  232 active torsions:
REMARK  status: ('A' for Active; 'I' for Inactive)
REMARK    1  A    between atoms: _1  and  _3
REMARK    2  A    between atoms: _3  and  _4
REMARK    3  A    between atoms: _3  and  _6
REMARK    4  A    between atoms: _6  and  _7
REMARK    5  A    between atoms: _7  and  _8
REMARK    6  A    between atoms: _8  and  _9
REMARK    7  A    between atoms: _18  and  _20
REMARK    8  A    between atoms: _20  and  _21
REMARK    9  A    between atoms: _20  and  _23
REMARK   10  A    between atoms: _23  and  _24
REMARK   11  A    between atoms: _27  and  _29
REMARK   12  A    between atoms: _29  and  _30
REMARK   13  A    between atoms: _29  and  _32
REMARK   14  A    between atoms: _32  and  _33
REMARK   15  A    between atoms: _39  and  _41
REMARK   16  A    between atoms: _41  and  _42
REMARK   17  A    between atoms: _41  and  _44
REMARK   18  A    between atoms: _44  and  _45
REMARK   19  A    between atoms: _48  and  _50
REMARK   20  A    between atoms: _50  and  _51
REMARK   21  A    between atoms: _50  and  _53
REMARK   22  A    between atoms: _53  and  _54
REMARK   23  A    between atoms: _57  and  _59
REMARK   24  A    between atoms: _59  and  _60
REMARK   25  A    between atoms: _59  and  _62
REMARK   26  A    between atoms: _62  and  _63
REMARK   27  A    between atoms: _66  and  _68
REMARK   28  A    between atoms: _68  and  _69
REMARK   29  A    between atoms: _72  and  _74
REMARK   30  A    between atoms: _74  and  _75
REMARK   31  A    between atoms: _74  and  _77
REMARK   32  A    between atoms: _77  and  _78
REMARK   33  A    between atoms: _81  and  _83
REMARK   34  A    between atoms: _83  and  _84
REMARK   35  A    between atoms: _83  and  _86
REMARK   36  A    between atoms: _89  and  _91
REMARK   37  A    between atoms: _91  and  _92
REMARK   38  A    between atoms: _94  and  _96
REMARK   39  A    between atoms: _96  and  _97
REMARK   40  A    between atoms: _96  and  _99
REMARK   41  A    between atoms: _99  and  _100
REMARK   42  A    between atoms: _100  and  _101
REMARK   43  A    between atoms: _103  and  _105
REMARK   44  A    between atoms: _105  and  _106
REMARK   45  A    between atoms: _105  and  _108
REMARK   46  A    between atoms: _108  and  _109
REMARK   47  A    between atoms: _109  and  _110
REMARK   48  A    between atoms: _112  and  _114
REMARK   49  A    between atoms: _114  and  _115
REMARK   50  A    between atoms: _117  and  _119
REMARK   51  A    between atoms: _119  and  _120
REMARK   52  A    between atoms: _119  and  _122
REMARK   53  A    between atoms: _122  and  _123
REMARK   54  A    between atoms: _126  and  _128
REMARK   55  A    between atoms: _128  and  _129
REMARK   56  A    between atoms: _128  and  _131
REMARK   57  A    between atoms: _134  and  _136
REMARK   58  A    between atoms: _136  and  _137
REMARK   59  A    between atoms: _136  and  _139
REMARK   60  A    between atoms: _139  and  _140
REMARK   61  A    between atoms: _140  and  _141
REMARK   62  A    between atoms: _143  and  _145
REMARK   63  A    between atoms: _145  and  _146
REMARK   64  A    between atoms: _145  and  _148
REMARK   65  A    between atoms: _148  and  _149
REMARK   66  A    between atoms: _152  and  _154
REMARK   67  A    between atoms: _154  and  _155
REMARK   68  A    between atoms: _158  and  _160
REMARK   69  A    between atoms: _160  and  _161
REMARK   70  A    between atoms: _160  and  _163
REMARK   71  A    between atoms: _163  and  _164
REMARK   72  A    between atoms: _169  and  _171
REMARK   73  A    between atoms: _171  and  _172
REMARK   74  A    between atoms: _171  and  _174
REMARK   75  A    between atoms: _174  and  _175
REMARK   76  A    between atoms: _178  and  _180
REMARK   77  A    between atoms: _180  and  _181
REMARK   78  A    between atoms: _180  and  _183
REMARK   79  A    between atoms: _183  and  _184
REMARK   80  A    between atoms: _184  and  _185
REMARK   81  A    between atoms: _188  and  _190
REMARK   82  A    between atoms: _190  and  _191
REMARK   83  A    between atoms: _193  and  _195
REMARK   84  A    between atoms: _195  and  _196
REMARK   85  A    between atoms: _195  and  _198
REMARK   86  A    between atoms: _198  and  _199
REMARK   87  A    between atoms: _199  and  _200
REMARK   88  A    between atoms: _200  and  _201
REMARK   89  A    between atoms: _210  and  _212
REMARK   90  A    between atoms: _212  and  _213
REMARK   91  A    between atoms: _212  and  _215
REMARK   92  A    between atoms: _215  and  _216
REMARK   93  A    between atoms: _216  and  _217
REMARK   94  A    between atoms: _217  and  _218
REMARK   95  A    between atoms: _218  and  _219
REMARK   96  A    between atoms: _223  and  _225
REMARK   97  A    between atoms: _225  and  _226
REMARK   98  A    between atoms: _225  and  _228
REMARK   99  A    between atoms: _228  and  _229
REMARK  100  A    between atoms: _235  and  _237
REMARK  101  A    between atoms: _237  and  _238
REMARK  102  A    between atoms: _237  and  _240
REMARK  103  A    between atoms: _240  and  _241
REMARK  104  A    between atoms: _247  and  _249
REMARK  105  A    between atoms: _249  and  _250
REMARK  106  A    between atoms: _249  and  _252
REMARK  107  A    between atoms: _252  and  _253
REMARK  108  A    between atoms: _256  and  _258
REMARK  109  A    between atoms: _258  and  _259
REMARK  110  A    between atoms: _258  and  _261
REMARK  111  A    between atoms: _261  and  _262
REMARK  112  A    between atoms: _268  and  _270
REMARK  113  A    between atoms: _270  and  _271
REMARK  114  A    between atoms: _270  and  _273
REMARK  115  A    between atoms: _273  and  _274
REMARK  116  A    between atoms: _277  and  _279
REMARK  117  A    between atoms: _279  and  _280
REMARK  118  A    between atoms: _279  and  _282
REMARK  119  A    between atoms: _282  and  _283
REMARK  120  A    between atoms: _283  and  _284
REMARK  121  A    between atoms: _284  and  _285
REMARK  122  A    between atoms: _285  and  _286
REMARK  123  A    between atoms: _290  and  _292
REMARK  124  A    between atoms: _292  and  _293
REMARK  125  A    between atoms: _292  and  _295
REMARK  126  A    between atoms: _295  and  _296
REMARK  127  A    between atoms: _299  and  _301
REMARK  128  A    between atoms: _301  and  _302
REMARK  129  A    between atoms: _301  and  _304
REMARK  130  A    between atoms: _304  and  _305
REMARK  131  A    between atoms: _310  and  _312
REMARK  132  A    between atoms: _312  and  _313
REMARK  133  A    between atoms: _312  and  _315
REMARK  134  A    between atoms: _315  and  _316
REMARK  135  A    between atoms: _316  and  _317
REMARK  136  A    between atoms: _317  and  _318
REMARK  137  A    between atoms: _318  and  _319
REMARK  138  A    between atoms: _323  and  _325
REMARK  139  A    between atoms: _325  and  _326
REMARK  140  A    between atoms: _325  and  _328
REMARK  141  A    between atoms: _328  and  _329
REMARK  142  A    between atoms: _331  and  _333
REMARK  143  A    between atoms: _333  and  _334
REMARK  144  A    between atoms: _333  and  _336
REMARK  145  A    between atoms: _336  and  _337
REMARK  146  A    between atoms: _340  and  _342
REMARK  147  A    between atoms: _342  and  _343
REMARK  148  A    between atoms: _342  and  _345
REMARK  149  A    between atoms: _345  and  _346
REMARK  150  A    between atoms: _346  and  _347
REMARK  151  A    between atoms: _350  and  _352
REMARK  152  A    between atoms: _352  and  _353
REMARK  153  A    between atoms: _356  and  _357
REMARK  154  A    between atoms: _363  and  _364
REMARK  155  A    between atoms: _369  and  _371
REMARK  156  A    between atoms: _371  and  _372
REMARK  157  A    between atoms: _371  and  _374
REMARK  158  A    between atoms: _374  and  _375
REMARK  159  A    between atoms: _381  and  _383
REMARK  160  A    between atoms: _383  and  _384
REMARK  161  A    between atoms: _383  and  _386
REMARK  162  A    between atoms: _386  and  _387
REMARK  163  A    between atoms: _390  and  _392
REMARK  164  A    between atoms: _392  and  _393
REMARK  165  A    between atoms: _392  and  _395
REMARK  166  A    between atoms: _395  and  _396
REMARK  167  A    between atoms: _401  and  _403
REMARK  168  A    between atoms: _403  and  _404
REMARK  169  A    between atoms: _406  and  _408
REMARK  170  A    between atoms: _408  and  _409
REMARK  171  A    between atoms: _411  and  _413
REMARK  172  A    between atoms: _413  and  _414
REMARK  173  A    between atoms: _417  and  _419
REMARK  174  A    between atoms: _419  and  _420
REMARK  175  A    between atoms: _419  and  _422
REMARK  176  A    between atoms: _422  and  _423
REMARK  177  A    between atoms: _426  and  _428
REMARK  178  A    between atoms: _428  and  _429
REMARK  179  A    between atoms: _432  and  _434
REMARK  180  A    between atoms: _434  and  _435
REMARK  181  A    between atoms: _434  and  _437
REMARK  182  A    between atoms: _437  and  _438
REMARK  183  A    between atoms: _443  and  _445
REMARK  184  A    between atoms: _445  and  _446
REMARK  185  A    between atoms: _445  and  _448
REMARK  186  A    between atoms: _448  and  _449
REMARK  187  A    between atoms: _452  and  _454
REMARK  188  A    between atoms: _454  and  _455
REMARK  189  A    between atoms: _454  and  _457
REMARK  190  A    between atoms: _457  and  _458
REMARK  191  A    between atoms: _463  and  _465
REMARK  192  A    between atoms: _465  and  _466
REMARK  193  A    between atoms: _465  and  _468
REMARK  194  A    between atoms: _468  and  _469
REMARK  195  A    between atoms: _474  and  _475
REMARK  196  A    between atoms: _477  and  _479
REMARK  197  A    between atoms: _479  and  _480
REMARK  198  A    between atoms: _479  and  _482
REMARK  199  A    between atoms: _482  and  _483
REMARK  200  A    between atoms: _483  and  _484
REMARK  201  A    between atoms: _484  and  _485
REMARK  202  A    between atoms: _485  and  _486
REMARK  203  A    between atoms: _490  and  _492
REMARK  204  A    between atoms: _492  and  _493
REMARK  205  A    between atoms: _492  and  _495
REMARK  206  A    between atoms: _495  and  _496
REMARK  207  A    between atoms: _496  and  _497
REMARK  208  A    between atoms: _497  and  _498
REMARK  209  A    between atoms: _508  and  _509
REMARK  210  A    between atoms: _514  and  _516
REMARK  211  A    between atoms: _516  and  _517
REMARK  212  A    between atoms: _516  and  _519
REMARK  213  A    between atoms: _519  and  _520
REMARK  214  A    between atoms: _524  and  _525
REMARK  215  A    between atoms: _530  and  _532
REMARK  216  A    between atoms: _532  and  _533
REMARK  217  A    between atoms: _532  and  _535
REMARK  218  A    between atoms: _535  and  _536
REMARK  219  A    between atoms: _539  and  _541
REMARK  220  A    between atoms: _541  and  _542
REMARK  221  A    between atoms: _541  and  _544
REMARK  222  A    between atoms: _544  and  _545
REMARK  223  A    between atoms: _550  and  _551
REMARK  224  A    between atoms: _553  and  _555
REMARK  225  A    between atoms: _555  and  _556
REMARK  226  A    between atoms: _555  and  _558
REMARK  227  A    between atoms: _558  and  _559
REMARK  228  A    between atoms: _561  and  _563
REMARK  229  A    between atoms: _563  and  _564
REMARK  230  A    between atoms: _563  and  _566
REMARK  231  A    between atoms: _566  and  _567
REMARK  232  A    between atoms: _567  and  _568
REMARK                            x       y       z     vdW  Elec       q    Type
REMARK                         _______ _______ _______ _____ _____    ______ ____
ROOT
ATOM      1  C   THR A   3      29.795  71.255  46.660  0.00  0.00    +0.243 C 
ATOM      2  N   VAL A   4      30.285  70.030  46.513  0.00  0.00    -0.297 N 
ATOM      3  H   VAL A   4      29.991  69.273  47.163  0.00  0.00    +0.150 HD
ATOM      4  O   THR A   3      30.111  72.188  45.928  0.00  0.00    -0.273 OA
ENDROOT
BRANCH   2   5
ATOM      5  CA  VAL A   4      31.232  69.741  45.445  0.00  0.00    +0.149 C 
BRANCH   5   6
ATOM      6  C   VAL A   4      30.576  69.918  44.068  0.00  0.00    +0.241 C 
ATOM      7  N   GLY A   5      29.263  69.707  44.001  0.00  0.00    -0.295 N 
ATOM      8  H   GLY A   5      28.756  69.449  44.872  0.00  0.00    +0.150 HD
ATOM      9  O   VAL A   4      31.246  70.272  43.108  0.00  0.00    -0.273 OA
BRANCH   7  10
ATOM     10  CA  GLY A   5      28.510  69.821  42.770  0.00  0.00    +0.176 C 
BRANCH  10  11
ATOM     11  C   GLY A   5      28.318  71.283  42.384  0.00  0.00    +0.243 C 
ATOM     12  N   MET A   6      28.043  72.118  43.379  0.00  0.00    -0.298 N 
ATOM     13  H   MET A   6      27.954  71.749  44.347  0.00  0.00    +0.150 HD
ATOM     14  O   GLY A   5      28.422  71.660  41.210  0.00  0.00    -0.273 OA
BRANCH  12  15
ATOM     15  CA  MET A   6      27.865  73.535  43.136  0.00  0.00    +0.138 C 
BRANCH  15  16
ATOM     16  C   MET A   6      29.206  74.191  42.774  0.00  0.00    +0.227 C 
ATOM     17  O   MET A   6      29.255  75.190  42.062  0.00  0.00    -0.286 OA
ENDBRANCH  15  16
BRANCH  15  18
ATOM     18  CB  MET A   6      27.236  74.206  44.351  0.00  0.00    +0.039 C 
BRANCH  18  19
ATOM     19  CG  MET A   6      26.750  75.608  44.067  0.00  0.00    +0.060 C 
BRANCH  19  20
ATOM     20  SD  MET A   6      25.256  75.558  43.069  0.00  0.00    -0.139 S 
ATOM     21  CE  MET A   6      24.153  74.766  44.233  0.00  0.00    +0.069 C 
ENDBRANCH  19  20
ENDBRANCH  18  19
ENDBRANCH  15  18
ENDBRANCH  12  15
ENDBRANCH  10  11
ENDBRANCH   7  10
ENDBRANCH   5   6
BRANCH   5  22
ATOM     22  CB  VAL A   4      31.916  68.345  45.603  0.00  0.00    +0.027 C 
ATOM     23  CG2 VAL A   4      32.716  68.298  46.864  0.00  0.00    +0.002 C 
ATOM     24  CG1 VAL A   4      30.904  67.220  45.572  0.00  0.00    +0.002 C 
ENDBRANCH   5  22
ENDBRANCH   2   5
BRANCH   1  25
ATOM     25  CA  THR A   3      28.819  71.467  47.811  0.00  0.00    +0.176 C 
BRANCH  25  27
ATOM     26  C   ALA A   2      26.677  70.693  46.995  0.00  0.00    +0.241 C 
ATOM     27  N   THR A   3      27.723  70.504  47.787  0.00  0.00    -0.295 N 
ATOM     28  H   THR A   3      27.763  69.662  48.396  0.00  0.00    +0.150 HD
ATOM     29  O   ALA A   2      26.603  71.641  46.223  0.00  0.00    -0.273 OA
BRANCH  26  30
ATOM     30  CA  ALA A   2      25.553  69.671  47.069  0.00  0.00    +0.149 C 
ATOM     31  CB  ALA A   2      24.502  70.117  48.043  0.00  0.00    +0.031 C 
BRANCH  30  33
ATOM     32  C   ASP A   1      26.866  67.712  46.546  0.00  0.00    +0.239 C 
ATOM     33  N   ALA A   2      26.064  68.341  47.398  0.00  0.00    -0.297 N 
ATOM     34  H   ALA A   2      25.800  67.889  48.297  0.00  0.00    +0.150 HD
ATOM     35  O   ASP A   1      27.193  68.200  45.470  0.00  0.00    -0.274 OA
BRANCH  32  36
ATOM     36  CA  ASP A   1      27.352  66.319  46.943  0.00  0.00    +0.156 C 
BRANCH  36  37
ATOM     37  N   ASP A   1      27.776  66.288  48.337  0.00  0.00    -0.238 NA
ATOM     38  H   ASP A   1      27.333  65.593  48.971  0.00  0.00    +0.142 HD
ENDBRANCH  36  37
BRANCH  36  39
ATOM     39  CB  ASP A   1      26.220  65.313  46.741  0.00  0.00    +0.140 C 
BRANCH  39  40
ATOM     40  CG  ASP A   1      25.806  65.165  45.286  0.00  0.00    +0.367 C 
ATOM     41  OD2 ASP A   1      24.593  65.309  44.990  0.00  0.00    -0.246 OA
ATOM     42  OD1 ASP A   1      26.685  64.880  44.446  0.00  0.00    -0.246 OA
ENDBRANCH  39  40
ENDBRANCH  36  39
ENDBRANCH  32  36
ENDBRANCH  30  33
ENDBRANCH  26  30
ENDBRANCH  25  27
BRANCH  25  43
ATOM     43  CB  THR A   3      29.594  71.419  49.138  0.00  0.00    +0.137 C 
ATOM     44  CG2 THR A   3      30.670  72.484  49.162  0.00  0.00    +0.034 C 
BRANCH  43  45
ATOM     45  OG1 THR A   3      28.686  71.651  50.213  0.00  0.00    -0.382 OA
ATOM     46  HG1 THR A   3      27.986  70.951  50.209  0.00  0.00    +0.210 HD
ENDBRANCH  43  45
ENDBRANCH  25  43
ENDBRANCH   1  25
TORSDOF 20
REMARK  Name = ../refined-set-2016/4gah/4gah_pocket.pdb
REMARK  232 active torsions:
REMARK  status: ('A' for Active; 'I' for Inactive)
REMARK    1  A    between atoms: _1  and  _3
REMARK    2  A    between atoms: _3  and  _4
REMARK    3  A    between atoms: _3  and  _6
REMARK    4  A    between atoms: _6  and  _7
REMARK    5  A    between atoms: _7  and  _8
REMARK    6  A    between atoms: _8  and  _9
REMARK    7  A    between atoms: _18  and  _20
REMARK    8  A    between atoms: _20  and  _21
REMARK    9  A    between atoms: _20  and  _23
REMARK   10  A    between atoms: _23  and  _24
REMARK   11  A    between atoms: _27  and  _29
REMARK   12  A    between atoms: _29  and  _30
REMARK   13  A    between atoms: _29  and  _32
REMARK   14  A    between atoms: _32  and  _33
REMARK   15  A    between atoms: _39  and  _41
REMARK   16  A    between atoms: _41  and  _42
REMARK   17  A    between atoms: _41  and  _44
REMARK   18  A    between atoms: _44  and  _45
REMARK   19  A    between atoms: _48  and  _50
REMARK   20  A    between atoms: _50  and  _51
REMARK   21  A    between atoms: _50  and  _53
REMARK   22  A    between atoms: _53  and  _54
REMARK   23  A    between atoms: _57  and  _59
REMARK   24  A    between atoms: _59  and  _60
REMARK   25  A    between atoms: _59  and  _62
REMARK   26  A    between atoms: _62  and  _63
REMARK   27  A    between atoms: _66  and  _68
REMARK   28  A    between atoms: _68  and  _69
REMARK   29  A    between atoms: _72  and  _74
REMARK   30  A    between atoms: _74  and  _75
REMARK   31  A    between atoms: _74  and  _77
REMARK   32  A    between atoms: _77  and  _78
REMARK   33  A    between atoms: _81  and  _83
REMARK   34  A    between atoms: _83  and  _84
REMARK   35  A    between atoms: _83  and  _86
REMARK   36  A    between atoms: _89  and  _91
REMARK   37  A    between atoms: _91  and  _92
REMARK   38  A    between atoms: _94  and  _96
REMARK   39  A    between atoms: _96  and  _97
REMARK   40  A    between atoms: _96  and  _99
REMARK   41  A    between atoms: _99  and  _100
REMARK   42  A    between atoms: _100  and  _101
REMARK   43  A    between atoms: _103  and  _105
REMARK   44  A    between atoms: _105  and  _106
REMARK   45  A    between atoms: _105  and  _108
REMARK   46  A    between atoms: _108  and  _109
REMARK   47  A    between atoms: _109  and  _110
REMARK   48  A    between atoms: _112  and  _114
REMARK   49  A    between atoms: _114  and  _115
REMARK   50  A    between atoms: _117  and  _119
REMARK   51  A    between atoms: _119  and  _120
REMARK   52  A    between atoms: _119  and  _122
REMARK   53  A    between atoms: _122  and  _123
REMARK   54  A    between atoms: _126  and  _128
REMARK   55  A    between atoms: _128  and  _129
REMARK   56  A    between atoms: _128  and  _131
REMARK   57  A    between atoms: _134  and  _136
REMARK   58  A    between atoms: _136  and  _137
REMARK   59  A    between atoms: _136  and  _139
REMARK   60  A    between atoms: _139  and  _140
REMARK   61  A    between atoms: _140  and  _141
REMARK   62  A    between atoms: _143  and  _145
REMARK   63  A    between atoms: _145  and  _146
REMARK   64  A    between atoms: _145  and  _148
REMARK   65  A    between atoms: _148  and  _149
REMARK   66  A    between atoms: _152  and  _154
REMARK   67  A    between atoms: _154  and  _155
REMARK   68  A    between atoms: _158  and  _160
REMARK   69  A    between atoms: _160  and  _161
REMARK   70  A    between atoms: _160  and  _163
REMARK   71  A    between atoms: _163  and  _164
REMARK   72  A    between atoms: _169  and  _171
REMARK   73  A    between atoms: _171  and  _172
REMARK   74  A    between atoms: _171  and  _174
REMARK   75  A    between atoms: _174  and  _175
REMARK   76  A    between atoms: _178  and  _180
REMARK   77  A    between atoms: _180  and  _181
REMARK   78  A    between atoms: _180  and  _183
REMARK   79  A    between atoms: _183  and  _184
REMARK   80  A    between atoms: _184  and  _185
REMARK   81  A    between atoms: _188  and  _190
REMARK   82  A    between atoms: _190  and  _191
REMARK   83  A    between atoms: _193  and  _195
REMARK   84  A    between atoms: _195  and  _196
REMARK   85  A    between atoms: _195  and  _198
REMARK   86  A    between atoms: _198  and  _199
REMARK   87  A    between atoms: _199  and  _200
REMARK   88  A    between atoms: _200  and  _201
REMARK   89  A    between atoms: _210  and  _212
REMARK   90  A    between atoms: _212  and  _213
REMARK   91  A    between atoms: _212  and  _215
REMARK   92  A    between atoms: _215  and  _216
REMARK   93  A    between atoms: _216  and  _217
REMARK   94  A    between atoms: _217  and  _218
REMARK   95  A    between atoms: _218  and  _219
REMARK   96  A    between atoms: _223  and  _225
REMARK   97  A    between atoms: _225  and  _226
REMARK   98  A    between atoms: _225  and  _228
REMARK   99  A    between atoms: _228  and  _229
REMARK  100  A    between atoms: _235  and  _237
REMARK  101  A    between atoms: _237  and  _238
REMARK  102  A    between atoms: _237  and  _240
REMARK  103  A    between atoms: _240  and  _241
REMARK  104  A    between atoms: _247  and  _249
REMARK  105  A    between atoms: _249  and  _250
REMARK  106  A    between atoms: _249  and  _252
REMARK  107  A    between atoms: _252  and  _253
REMARK  108  A    between atoms: _256  and  _258
REMARK  109  A    between atoms: _258  and  _259
REMARK  110  A    between atoms: _258  and  _261
REMARK  111  A    between atoms: _261  and  _262
REMARK  112  A    between atoms: _268  and  _270
REMARK  113  A    between atoms: _270  and  _271
REMARK  114  A    between atoms: _270  and  _273
REMARK  115  A    between atoms: _273  and  _274
REMARK  116  A    between atoms: _277  and  _279
REMARK  117  A    between atoms: _279  and  _280
REMARK  118  A    between atoms: _279  and  _282
REMARK  119  A    between atoms: _282  and  _283
REMARK  120  A    between atoms: _283  and  _284
REMARK  121  A    between atoms: _284  and  _285
REMARK  122  A    between atoms: _285  and  _286
REMARK  123  A    between atoms: _290  and  _292
REMARK  124  A    between atoms: _292  and  _293
REMARK  125  A    between atoms: _292  and  _295
REMARK  126  A    between atoms: _295  and  _296
REMARK  127  A    between atoms: _299  and  _301
REMARK  128  A    between atoms: _301  and  _302
REMARK  129  A    between atoms: _301  and  _304
REMARK  130  A    between atoms: _304  and  _305
REMARK  131  A    between atoms: _310  and  _312
REMARK  132  A    between atoms: _312  and  _313
REMARK  133  A    between atoms: _312  and  _315
REMARK  134  A    between atoms: _315  and  _316
REMARK  135  A    between atoms: _316  and  _317
REMARK  136  A    between atoms: _317  and  _318
REMARK  137  A    between atoms: _318  and  _319
REMARK  138  A    between atoms: _323  and  _325
REMARK  139  A    between atoms: _325  and  _326
REMARK  140  A    between atoms: _325  and  _328
REMARK  141  A    between atoms: _328  and  _329
REMARK  142  A    between atoms: _331  and  _333
REMARK  143  A    between atoms: _333  and  _334
REMARK  144  A    between atoms: _333  and  _336
REMARK  145  A    between atoms: _336  and  _337
REMARK  146  A    between atoms: _340  and  _342
REMARK  147  A    between atoms: _342  and  _343
REMARK  148  A    between atoms: _342  and  _345
REMARK  149  A    between atoms: _345  and  _346
REMARK  150  A    between atoms: _346  and  _347
REMARK  151  A    between atoms: _350  and  _352
REMARK  152  A    between atoms: _352  and  _353
REMARK  153  A    between atoms: _356  and  _357
REMARK  154  A    between atoms: _363  and  _364
REMARK  155  A    between atoms: _369  and  _371
REMARK  156  A    between atoms: _371  and  _372
REMARK  157  A    between atoms: _371  and  _374
REMARK  158  A    between atoms: _374  and  _375
REMARK  159  A    between atoms: _381  and  _383
REMARK  160  A    between atoms: _383  and  _384
REMARK  161  A    between atoms: _383  and  _386
REMARK  162  A    between atoms: _386  and  _387
REMARK  163  A    between atoms: _390  and  _392
REMARK  164  A    between atoms: _392  and  _393
REMARK  165  A    between atoms: _392  and  _395
REMARK  166  A    between atoms: _395  and  _396
REMARK  167  A    between atoms: _401  and  _403
REMARK  168  A    between atoms: _403  and  _404
REMARK  169  A    between atoms: _406  and  _408
REMARK  170  A    between atoms: _408  and  _409
REMARK  171  A    between atoms: _411  and  _413
REMARK  172  A    between atoms: _413  and  _414
REMARK  173  A    between atoms: _417  and  _419
REMARK  174  A    between atoms: _419  and  _420
REMARK  175  A    between atoms: _419  and  _422
REMARK  176  A    between atoms: _422  and  _423
REMARK  177  A    between atoms: _426  and  _428
REMARK  178  A    between atoms: _428  and  _429
REMARK  179  A    between atoms: _432  and  _434
REMARK  180  A    between atoms: _434  and  _435
REMARK  181  A    between atoms: _434  and  _437
REMARK  182  A    between atoms: _437  and  _438
REMARK  183  A    between atoms: _443  and  _445
REMARK  184  A    between atoms: _445  and  _446
REMARK  185  A    between atoms: _445  and  _448
REMARK  186  A    between atoms: _448  and  _449
REMARK  187  A    between atoms: _452  and  _454
REMARK  188  A    between atoms: _454  and  _455
REMARK  189  A    between atoms: _454  and  _457
REMARK  190  A    between atoms: _457  and  _458
REMARK  191  A    between atoms: _463  and  _465
REMARK  192  A    between atoms: _465  and  _466
REMARK  193  A    between atoms: _465  and  _468
REMARK  194  A    between atoms: _468  and  _469
REMARK  195  A    between atoms: _474  and  _475
REMARK  196  A    between atoms: _477  and  _479
REMARK  197  A    between atoms: _479  and  _480
REMARK  198  A    between atoms: _479  and  _482
REMARK  199  A    between atoms: _482  and  _483
REMARK  200  A    between atoms: _483  and  _484
REMARK  201  A    between atoms: _484  and  _485
REMARK  202  A    between atoms: _485  and  _486
REMARK  203  A    between atoms: _490  and  _492
REMARK  204  A    between atoms: _492  and  _493
REMARK  205  A    between atoms: _492  and  _495
REMARK  206  A    between atoms: _495  and  _496
REMARK  207  A    between atoms: _496  and  _497
REMARK  208  A    between atoms: _497  and  _498
REMARK  209  A    between atoms: _508  and  _509
REMARK  210  A    between atoms: _514  and  _516
REMARK  211  A    between atoms: _516  and  _517
REMARK  212  A    between atoms: _516  and  _519
REMARK  213  A    between atoms: _519  and  _520
REMARK  214  A    between atoms: _524  and  _525
REMARK  215  A    between atoms: _530  and  _532
REMARK  216  A    between atoms: _532  and  _533
REMARK  217  A    between atoms: _532  and  _535
REMARK  218  A    between atoms: _535  and  _536
REMARK  219  A    between atoms: _539  and  _541
REMARK  220  A    between atoms: _541  and  _542
REMARK  221  A    between atoms: _541  and  _544
REMARK  222  A    between atoms: _544  and  _545
REMARK  223  A    between atoms: _550  and  _551
REMARK  224  A    between atoms: _553  and  _555
REMARK  225  A    between atoms: _555  and  _556
REMARK  226  A    between atoms: _555  and  _558
REMARK  227  A    between atoms: _558  and  _559
REMARK  228  A    between atoms: _561  and  _563
REMARK  229  A    between atoms: _563  and  _564
REMARK  230  A    between atoms: _563  and  _566
REMARK  231  A    between atoms: _566  and  _567
REMARK  232  A    between atoms: _567  and  _568
REMARK                            x       y       z     vdW  Elec       q    Type
REMARK                         _______ _______ _______ _____ _____    ______ ____
ROOT
ATOM      1  CA  MET A   1      28.683  74.122  38.375  0.00  0.00    +0.134 C 
ENDROOT
BRANCH   1   2
ATOM      2  N   MET A   1      29.675  73.406  39.130  0.00  0.00    -0.239 NA
ATOM      3  H   MET A   1      29.424  73.071  40.082  0.00  0.00    +0.142 HD
ENDBRANCH   1   2
BRANCH   1   4
ATOM      4  C   MET A   1      29.017  75.622  38.241  0.00  0.00    +0.224 C 
ATOM      5  O   MET A   1      28.744  76.223  37.209  0.00  0.00    -0.287 OA
ENDBRANCH   1   4
BRANCH   1   6
ATOM      6  CB  MET A   1      27.348  73.938  39.074  0.00  0.00    +0.037 C 
BRANCH   6   7
ATOM      7  CG  MET A   1      26.139  74.210  38.227  0.00  0.00    +0.059 C 
BRANCH   7   8
ATOM      8  SD  MET A   1      24.924  75.114  39.198  0.00  0.00    -0.139 S 
ATOM      9  CE  MET A   1      25.727  76.710  39.267  0.00  0.00    +0.069 C 
ENDBRANCH   7   8
ENDBRANCH   6   7
ENDBRANCH   1   6
TORSDOF 5
REMARK  Name = ../refined-set-2016/4gah/4gah_pocket.pdb
REMARK  232 active torsions:
REMARK  status: ('A' for Active; 'I' for Inactive)
REMARK    1  A    between atoms: _1  and  _3
REMARK    2  A    between atoms: _3  and  _4
REMARK    3  A    between atoms: _3  and  _6
REMARK    4  A    between atoms: _6  and  _7
REMARK    5  A    between atoms: _7  and  _8
REMARK    6  A    between atoms: _8  and  _9
REMARK    7  A    between atoms: _18  and  _20
REMARK    8  A    between atoms: _20  and  _21
REMARK    9  A    between atoms: _20  and  _23
REMARK   10  A    between atoms: _23  and  _24
REMARK   11  A    between atoms: _27  and  _29
REMARK   12  A    between atoms: _29  and  _30
REMARK   13  A    between atoms: _29  and  _32
REMARK   14  A    between atoms: _32  and  _33
REMARK   15  A    between atoms: _39  and  _41
REMARK   16  A    between atoms: _41  and  _42
REMARK   17  A    between atoms: _41  and  _44
REMARK   18  A    between atoms: _44  and  _45
REMARK   19  A    between atoms: _48  and  _50
REMARK   20  A    between atoms: _50  and  _51
REMARK   21  A    between atoms: _50  and  _53
REMARK   22  A    between atoms: _53  and  _54
REMARK   23  A    between atoms: _57  and  _59
REMARK   24  A    between atoms: _59  and  _60
REMARK   25  A    between atoms: _59  and  _62
REMARK   26  A    between atoms: _62  and  _63
REMARK   27  A    between atoms: _66  and  _68
REMARK   28  A    between atoms: _68  and  _69
REMARK   29  A    between atoms: _72  and  _74
REMARK   30  A    between atoms: _74  and  _75
REMARK   31  A    between atoms: _74  and  _77
REMARK   32  A    between atoms: _77  and  _78
REMARK   33  A    between atoms: _81  and  _83
REMARK   34  A    between atoms: _83  and  _84
REMARK   35  A    between atoms: _83  and  _86
REMARK   36  A    between atoms: _89  and  _91
REMARK   37  A    between atoms: _91  and  _92
REMARK   38  A    between atoms: _94  and  _96
REMARK   39  A    between atoms: _96  and  _97
REMARK   40  A    between atoms: _96  and  _99
REMARK   41  A    between atoms: _99  and  _100
REMARK   42  A    between atoms: _100  and  _101
REMARK   43  A    between atoms: _103  and  _105
REMARK   44  A    between atoms: _105  and  _106
REMARK   45  A    between atoms: _105  and  _108
REMARK   46  A    between atoms: _108  and  _109
REMARK   47  A    between atoms: _109  and  _110
REMARK   48  A    between atoms: _112  and  _114
REMARK   49  A    between atoms: _114  and  _115
REMARK   50  A    between atoms: _117  and  _119
REMARK   51  A    between atoms: _119  and  _120
REMARK   52  A    between atoms: _119  and  _122
REMARK   53  A    between atoms: _122  and  _123
REMARK   54  A    between atoms: _126  and  _128
REMARK   55  A    between atoms: _128  and  _129
REMARK   56  A    between atoms: _128  and  _131
REMARK   57  A    between atoms: _134  and  _136
REMARK   58  A    between atoms: _136  and  _137
REMARK   59  A    between atoms: _136  and  _139
REMARK   60  A    between atoms: _139  and  _140
REMARK   61  A    between atoms: _140  and  _141
REMARK   62  A    between atoms: _143  and  _145
REMARK   63  A    between atoms: _145  and  _146
REMARK   64  A    between atoms: _145  and  _148
REMARK   65  A    between atoms: _148  and  _149
REMARK   66  A    between atoms: _152  and  _154
REMARK   67  A    between atoms: _154  and  _155
REMARK   68  A    between atoms: _158  and  _160
REMARK   69  A    between atoms: _160  and  _161
REMARK   70  A    between atoms: _160  and  _163
REMARK   71  A    between atoms: _163  and  _164
REMARK   72  A    between atoms: _169  and  _171
REMARK   73  A    between atoms: _171  and  _172
REMARK   74  A    between atoms: _171  and  _174
REMARK   75  A    between atoms: _174  and  _175
REMARK   76  A    between atoms: _178  and  _180
REMARK   77  A    between atoms: _180  and  _181
REMARK   78  A    between atoms: _180  and  _183
REMARK   79  A    between atoms: _183  and  _184
REMARK   80  A    between atoms: _184  and  _185
REMARK   81  A    between atoms: _188  and  _190
REMARK   82  A    between atoms: _190  and  _191
REMARK   83  A    between atoms: _193  and  _195
REMARK   84  A    between atoms: _195  and  _196
REMARK   85  A    between atoms: _195  and  _198
REMARK   86  A    between atoms: _198  and  _199
REMARK   87  A    between atoms: _199  and  _200
REMARK   88  A    between atoms: _200  and  _201
REMARK   89  A    between atoms: _210  and  _212
REMARK   90  A    between atoms: _212  and  _213
REMARK   91  A    between atoms: _212  and  _215
REMARK   92  A    between atoms: _215  and  _216
REMARK   93  A    between atoms: _216  and  _217
REMARK   94  A    between atoms: _217  and  _218
REMARK   95  A    between atoms: _218  and  _219
REMARK   96  A    between atoms: _223  and  _225
REMARK   97  A    between atoms: _225  and  _226
REMARK   98  A    between atoms: _225  and  _228
REMARK   99  A    between atoms: _228  and  _229
REMARK  100  A    between atoms: _235  and  _237
REMARK  101  A    between atoms: _237  and  _238
REMARK  102  A    between atoms: _237  and  _240
REMARK  103  A    between atoms: _240  and  _241
REMARK  104  A    between atoms: _247  and  _249
REMARK  105  A    between atoms: _249  and  _250
REMARK  106  A    between atoms: _249  and  _252
REMARK  107  A    between atoms: _252  and  _253
REMARK  108  A    between atoms: _256  and  _258
REMARK  109  A    between atoms: _258  and  _259
REMARK  110  A    between atoms: _258  and  _261
REMARK  111  A    between atoms: _261  and  _262
REMARK  112  A    between atoms: _268  and  _270
REMARK  113  A    between atoms: _270  and  _271
REMARK  114  A    between atoms: _270  and  _273
REMARK  115  A    between atoms: _273  and  _274
REMARK  116  A    between atoms: _277  and  _279
REMARK  117  A    between atoms: _279  and  _280
REMARK  118  A    between atoms: _279  and  _282
REMARK  119  A    between atoms: _282  and  _283
REMARK  120  A    between atoms: _283  and  _284
REMARK  121  A    between atoms: _284  and  _285
REMARK  122  A    between atoms: _285  and  _286
REMARK  123  A    between atoms: _290  and  _292
REMARK  124  A    between atoms: _292  and  _293
REMARK  125  A    between atoms: _292  and  _295
REMARK  126  A    between atoms: _295  and  _296
REMARK  127  A    between atoms: _299  and  _301
REMARK  128  A    between atoms: _301  and  _302
REMARK  129  A    between atoms: _301  and  _304
REMARK  130  A    between atoms: _304  and  _305
REMARK  131  A    between atoms: _310  and  _312
REMARK  132  A    between atoms: _312  and  _313
REMARK  133  A    between atoms: _312  and  _315
REMARK  134  A    between atoms: _315  and  _316
REMARK  135  A    between atoms: _316  and  _317
REMARK  136  A    between atoms: _317  and  _318
REMARK  137  A    between atoms: _318  and  _319
REMARK  138  A    between atoms: _323  and  _325
REMARK  139  A    between atoms: _325  and  _326
REMARK  140  A    between atoms: _325  and  _328
REMARK  141  A    between atoms: _328  and  _329
REMARK  142  A    between atoms: _331  and  _333
REMARK  143  A    between atoms: _333  and  _334
REMARK  144  A    between atoms: _333  and  _336
REMARK  145  A    between atoms: _336  and  _337
REMARK  146  A    between atoms: _340  and  _342
REMARK  147  A    between atoms: _342  and  _343
REMARK  148  A    between atoms: _342  and  _345
REMARK  149  A    between atoms: _345  and  _346
REMARK  150  A    between atoms: _346  and  _347
REMARK  151  A    between atoms: _350  and  _352
REMARK  152  A    between atoms: _352  and  _353
REMARK  153  A    between atoms: _356  and  _357
REMARK  154  A    between atoms: _363  and  _364
REMARK  155  A    between atoms: _369  and  _371
REMARK  156  A    between atoms: _371  and  _372
REMARK  157  A    between atoms: _371  and  _374
REMARK  158  A    between atoms: _374  and  _375
REMARK  159  A    between atoms: _381  and  _383
REMARK  160  A    between atoms: _383  and  _384
REMARK  161  A    between atoms: _383  and  _386
REMARK  162  A    between atoms: _386  and  _387
REMARK  163  A    between atoms: _390  and  _392
REMARK  164  A    between atoms: _392  and  _393
REMARK  165  A    between atoms: _392  and  _395
REMARK  166  A    between atoms: _395  and  _396
REMARK  167  A    between atoms: _401  and  _403
REMARK  168  A    between atoms: _403  and  _404
REMARK  169  A    between atoms: _406  and  _408
REMARK  170  A    between atoms: _408  and  _409
REMARK  171  A    between atoms: _411  and  _413
REMARK  172  A    between atoms: _413  and  _414
REMARK  173  A    between atoms: _417  and  _419
REMARK  174  A    between atoms: _419  and  _420
REMARK  175  A    between atoms: _419  and  _422
REMARK  176  A    between atoms: _422  and  _423
REMARK  177  A    between atoms: _426  and  _428
REMARK  178  A    between atoms: _428  and  _429
REMARK  179  A    between atoms: _432  and  _434
REMARK  180  A    between atoms: _434  and  _435
REMARK  181  A    between atoms: _434  and  _437
REMARK  182  A    between atoms: _437  and  _438
REMARK  183  A    between atoms: _443  and  _445
REMARK  184  A    between atoms: _445  and  _446
REMARK  185  A    between atoms: _445  and  _448
REMARK  186  A    between atoms: _448  and  _449
REMARK  187  A    between atoms: _452  and  _454
REMARK  188  A    between atoms: _454  and  _455
REMARK  189  A    between atoms: _454  and  _457
REMARK  190  A    between atoms: _457  and  _458
REMARK  191  A    between atoms: _463  and  _465
REMARK  192  A    between atoms: _465  and  _466
REMARK  193  A    between atoms: _465  and  _468
REMARK  194  A    between atoms: _468  and  _469
REMARK  195  A    between atoms: _474  and  _475
REMARK  196  A    between atoms: _477  and  _479
REMARK  197  A    between atoms: _479  and  _480
REMARK  198  A    between atoms: _479  and  _482
REMARK  199  A    between atoms: _482  and  _483
REMARK  200  A    between atoms: _483  and  _484
REMARK  201  A    between atoms: _484  and  _485
REMARK  202  A    between atoms: _485  and  _486
REMARK  203  A    between atoms: _490  and  _492
REMARK  204  A    between atoms: _492  and  _493
REMARK  205  A    between atoms: _492  and  _495
REMARK  206  A    between atoms: _495  and  _496
REMARK  207  A    between atoms: _496  and  _497
REMARK  208  A    between atoms: _497  and  _498
REMARK  209  A    between atoms: _508  and  _509
REMARK  210  A    between atoms: _514  and  _516
REMARK  211  A    between atoms: _516  and  _517
REMARK  212  A    between atoms: _516  and  _519
REMARK  213  A    between atoms: _519  and  _520
REMARK  214  A    between atoms: _524  and  _525
REMARK  215  A    between atoms: _530  and  _532
REMARK  216  A    between atoms: _532  and  _533
REMARK  217  A    between atoms: _532  and  _535
REMARK  218  A    between atoms: _535  and  _536
REMARK  219  A    between atoms: _539  and  _541
REMARK  220  A    between atoms: _541  and  _542
REMARK  221  A    between atoms: _541  and  _544
REMARK  222  A    between atoms: _544  and  _545
REMARK  223  A    between atoms: _550  and  _551
REMARK  224  A    between atoms: _553  and  _555
REMARK  225  A    between atoms: _555  and  _556
REMARK  226  A    between atoms: _555  and  _558
REMARK  227  A    between atoms: _558  and  _559
REMARK  228  A    between atoms: _561  and  _563
REMARK  229  A    between atoms: _563  and  _564
REMARK  230  A    between atoms: _563  and  _566
REMARK  231  A    between atoms: _566  and  _567
REMARK  232  A    between atoms: _567  and  _568
REMARK                            x       y       z     vdW  Elec       q    Type
REMARK                         _______ _______ _______ _____ _____    ______ ____
ROOT
ATOM      1  C   MET A   4      26.724  64.852  37.713  0.00  0.00    +0.241 C 
ATOM      2  N   THR A   5      26.513  64.386  38.941  0.00  0.00    -0.295 N 
ATOM      3  H   THR A   5      25.622  64.628  39.420  0.00  0.00    +0.150 HD
ATOM      4  O   MET A   4      27.761  64.680  37.092  0.00  0.00    -0.273 OA
ENDROOT
BRANCH   2   5
ATOM      5  CA  THR A   5      27.484  63.547  39.646  0.00  0.00    +0.176 C 
BRANCH   5   6
ATOM      6  C   THR A   5      27.567  62.226  38.956  0.00  0.00    +0.243 C 
ATOM      7  N   ALA A   6      28.790  61.786  38.679  0.00  0.00    -0.297 N 
ATOM      8  H   ALA A   6      29.600  62.416  38.849  0.00  0.00    +0.150 HD
ATOM      9  O   THR A   5      26.534  61.624  38.671  0.00  0.00    -0.273 OA
BRANCH   7  10
ATOM     10  CA  ALA A   6      29.038  60.450  38.144  0.00  0.00    +0.149 C 
ATOM     11  CB  ALA A   6      29.947  60.523  36.927  0.00  0.00    +0.031 C 
BRANCH  10  12
ATOM     12  C   ALA A   6      29.653  59.564  39.235  0.00  0.00    +0.241 C 
ATOM     13  N   ASN A   7      30.552  60.143  40.025  0.00  0.00    -0.297 N 
ATOM     14  H   ASN A   7      30.822  61.131  39.844  0.00  0.00    +0.150 HD
ATOM     15  O   ALA A   6      29.315  58.382  39.365  0.00  0.00    -0.273 OA
BRANCH  13  16
ATOM     16  CA  ASN A   7      31.168  59.435  41.135  0.00  0.00    +0.158 C 
BRANCH  16  17
ATOM     17  C   ASN A   7      31.248  60.286  42.417  0.00  0.00    +0.241 C 
ATOM     18  N   LEU A   8      31.058  59.621  43.550  0.00  0.00    -0.298 N 
ATOM     19  H   LEU A   8      30.836  58.607  43.490  0.00  0.00    +0.150 HD
ATOM     20  O   ASN A   7      31.471  61.495  42.368  0.00  0.00    -0.273 OA
BRANCH  18  21
ATOM     21  CA  LEU A   8      31.141  60.221  44.860  0.00  0.00    +0.137 C 
BRANCH  21  22
ATOM     22  C   LEU A   8      31.832  59.201  45.789  0.00  0.00    +0.227 C 
ATOM     23  O   LEU A   8      31.340  58.094  46.030  0.00  0.00    -0.286 OA
ENDBRANCH  21  22
BRANCH  21  24
ATOM     24  CB  LEU A   8      29.736  60.582  45.340  0.00  0.00    +0.028 C 
BRANCH  24  25
ATOM     25  CG  LEU A   8      29.569  61.430  46.591  0.00  0.00    +0.002 C 
ATOM     26  CD2 LEU A   8      28.097  61.760  46.815  0.00  0.00    +0.000 C 
ATOM     27  CD1 LEU A   8      30.404  62.707  46.523  0.00  0.00    +0.000 C 
ENDBRANCH  24  25
ENDBRANCH  21  24
ENDBRANCH  18  21
ENDBRANCH  16  17
BRANCH  16  28
ATOM     28  CB  ASN A   7      32.558  58.934  40.759  0.00  0.00    +0.114 C 
BRANCH  28  29
ATOM     29  CG  ASN A   7      33.209  58.151  41.885  0.00  0.00    +0.222 C 
ATOM     30  OD1 ASN A   7      34.205  58.584  42.469  0.00  0.00    -0.275 OA
ATOM     31  ND2 ASN A   7      32.625  57.007  42.222  0.00  0.00    -0.329 N 
ATOM     32 HD21 ASN A   7      33.007  56.439  43.006  0.00  0.00    +0.145 HD
ATOM     33 HD22 ASN A   7      31.786  56.679  41.702  0.00  0.00    +0.145 HD
ENDBRANCH  28  29
ENDBRANCH  16  28
ENDBRANCH  13  16
ENDBRANCH  10  12
ENDBRANCH   7  10
ENDBRANCH   5   6
BRANCH   5  34
ATOM     34  CB  THR A   5      27.040  63.207  41.092  0.00  0.00    +0.137 C 
ATOM     35  CG2 THR A   5      28.271  62.883  41.978  0.00  0.00    +0.034 C 
BRANCH  34  36
ATOM     36  OG1 THR A   5      26.285  64.284  41.656  0.00  0.00    -0.382 OA
ATOM     37  HG1 THR A   5      26.012  64.047  42.578  0.00  0.00    +0.210 HD
ENDBRANCH  34  36
ENDBRANCH   5  34
ENDBRANCH   2   5
BRANCH   1  38
ATOM     38  CA  MET A   4      25.617  65.695  37.123  0.00  0.00    +0.149 C 
BRANCH  38  41
ATOM     39  C   VAL A   3      25.904  67.990  36.346  0.00  0.00    +0.241 C 
ATOM     40  O   VAL A   3      24.974  68.425  37.025  0.00  0.00    -0.273 OA
ATOM     41  N   MET A   4      26.206  66.695  36.254  0.00  0.00    -0.297 N 
ATOM     42  H   MET A   4      26.890  66.391  35.532  0.00  0.00    +0.150 HD
BRANCH  39  43
ATOM     43  CA  VAL A   3      26.778  68.931  35.530  0.00  0.00    +0.149 C 
BRANCH  43  45
ATOM     44  C   ILE A   2      26.119  70.907  34.229  0.00  0.00    +0.241 C 
ATOM     45  N   VAL A   3      26.114  70.222  35.371  0.00  0.00    -0.297 N 
ATOM     46  H   VAL A   3      25.613  70.626  36.188  0.00  0.00    +0.150 HD
ATOM     47  O   ILE A   2      26.638  70.493  33.198  0.00  0.00    -0.273 OA
BRANCH  44  48
ATOM     48  CA  ILE A   2      25.410  72.276  34.274  0.00  0.00    +0.148 C 
BRANCH  48  51
ATOM     49  C   GLY A   1      27.284  73.795  34.539  0.00  0.00    +0.240 C 
ATOM     50  O   GLY A   1      27.693  73.148  35.497  0.00  0.00    -0.274 OA
ATOM     51  N   ILE A   2      26.217  73.422  33.840  0.00  0.00    -0.297 N 
ATOM     52  H   ILE A   2      25.953  73.945  32.981  0.00  0.00    +0.150 HD
BRANCH  49  53
ATOM     53  CA  GLY A   1      27.977  75.076  34.110  0.00  0.00    +0.169 C 
BRANCH  53  54
ATOM     54  N   GLY A   1      29.331  75.248  34.608  0.00  0.00    -0.236 NA
ATOM     55  H   GLY A   1      29.492  75.619  35.566  0.00  0.00    +0.142 HD
ENDBRANCH  53  54
ENDBRANCH  49  53
ENDBRANCH  48  51
BRANCH  48  56
ATOM     56  CB  ILE A   2      24.090  72.210  33.507  0.00  0.00    +0.027 C 
ATOM     57  CG2 ILE A   2      23.220  71.069  34.040  0.00  0.00    +0.002 C 
BRANCH  56  58
ATOM     58  CG1 ILE A   2      23.395  73.562  33.624  0.00  0.00    +0.002 C 
ATOM     59  CD1 ILE A   2      22.273  73.794  32.618  0.00  0.00    +0.000 C 
ENDBRANCH  56  58
ENDBRANCH  48  56
ENDBRANCH  44  48
ENDBRANCH  43  45
BRANCH  43  60
ATOM     60  CB  VAL A   3      28.126  69.070  36.268  0.00  0.00    +0.027 C 
ATOM     61  CG2 VAL A   3      27.929  69.798  37.613  0.00  0.00    +0.002 C 
ATOM     62  CG1 VAL A   3      29.131  69.812  35.410  0.00  0.00    +0.002 C 
ENDBRANCH  43  60
ENDBRANCH  39  43
ENDBRANCH  38  41
BRANCH  38  63
ATOM     63  CB  MET A   4      24.581  64.838  36.397  0.00  0.00    +0.041 C 
BRANCH  63  64
ATOM     64  CG  MET A   4      23.304  65.598  36.155  0.00  0.00    +0.060 C 
BRANCH  64  65
ATOM     65  SD  MET A   4      21.885  64.585  35.760  0.00  0.00    -0.139 S 
ATOM     66  CE  MET A   4      22.448  63.753  34.286  0.00  0.00    +0.069 C 
ENDBRANCH  64  65
ENDBRANCH  63  64
ENDBRANCH  38  63
ENDBRANCH   1  38
TORSDOF 28
REMARK  Name = ../refined-set-2016/4gah/4gah_pocket.pdb
REMARK  232 active torsions:
REMARK  status: ('A' for Active; 'I' for Inactive)
REMARK    1  A    between atoms: _1  and  _3
REMARK    2  A    between atoms: _3  and  _4
REMARK    3  A    between atoms: _3  and  _6
REMARK    4  A    between atoms: _6  and  _7
REMARK    5  A    between atoms: _7  and  _8
REMARK    6  A    between atoms: _8  and  _9
REMARK    7  A    between atoms: _18  and  _20
REMARK    8  A    between atoms: _20  and  _21
REMARK    9  A    between atoms: _20  and  _23
REMARK   10  A    between atoms: _23  and  _24
REMARK   11  A    between atoms: _27  and  _29
REMARK   12  A    between atoms: _29  and  _30
REMARK   13  A    between atoms: _29  and  _32
REMARK   14  A    between atoms: _32  and  _33
REMARK   15  A    between atoms: _39  and  _41
REMARK   16  A    between atoms: _41  and  _42
REMARK   17  A    between atoms: _41  and  _44
REMARK   18  A    between atoms: _44  and  _45
REMARK   19  A    between atoms: _48  and  _50
REMARK   20  A    between atoms: _50  and  _51
REMARK   21  A    between atoms: _50  and  _53
REMARK   22  A    between atoms: _53  and  _54
REMARK   23  A    between atoms: _57  and  _59
REMARK   24  A    between atoms: _59  and  _60
REMARK   25  A    between atoms: _59  and  _62
REMARK   26  A    between atoms: _62  and  _63
REMARK   27  A    between atoms: _66  and  _68
REMARK   28  A    between atoms: _68  and  _69
REMARK   29  A    between atoms: _72  and  _74
REMARK   30  A    between atoms: _74  and  _75
REMARK   31  A    between atoms: _74  and  _77
REMARK   32  A    between atoms: _77  and  _78
REMARK   33  A    between atoms: _81  and  _83
REMARK   34  A    between atoms: _83  and  _84
REMARK   35  A    between atoms: _83  and  _86
REMARK   36  A    between atoms: _89  and  _91
REMARK   37  A    between atoms: _91  and  _92
REMARK   38  A    between atoms: _94  and  _96
REMARK   39  A    between atoms: _96  and  _97
REMARK   40  A    between atoms: _96  and  _99
REMARK   41  A    between atoms: _99  and  _100
REMARK   42  A    between atoms: _100  and  _101
REMARK   43  A    between atoms: _103  and  _105
REMARK   44  A    between atoms: _105  and  _106
REMARK   45  A    between atoms: _105  and  _108
REMARK   46  A    between atoms: _108  and  _109
REMARK   47  A    between atoms: _109  and  _110
REMARK   48  A    between atoms: _112  and  _114
REMARK   49  A    between atoms: _114  and  _115
REMARK   50  A    between atoms: _117  and  _119
REMARK   51  A    between atoms: _119  and  _120
REMARK   52  A    between atoms: _119  and  _122
REMARK   53  A    between atoms: _122  and  _123
REMARK   54  A    between atoms: _126  and  _128
REMARK   55  A    between atoms: _128  and  _129
REMARK   56  A    between atoms: _128  and  _131
REMARK   57  A    between atoms: _134  and  _136
REMARK   58  A    between atoms: _136  and  _137
REMARK   59  A    between atoms: _136  and  _139
REMARK   60  A    between atoms: _139  and  _140
REMARK   61  A    between atoms: _140  and  _141
REMARK   62  A    between atoms: _143  and  _145
REMARK   63  A    between atoms: _145  and  _146
REMARK   64  A    between atoms: _145  and  _148
REMARK   65  A    between atoms: _148  and  _149
REMARK   66  A    between atoms: _152  and  _154
REMARK   67  A    between atoms: _154  and  _155
REMARK   68  A    between atoms: _158  and  _160
REMARK   69  A    between atoms: _160  and  _161
REMARK   70  A    between atoms: _160  and  _163
REMARK   71  A    between atoms: _163  and  _164
REMARK   72  A    between atoms: _169  and  _171
REMARK   73  A    between atoms: _171  and  _172
REMARK   74  A    between atoms: _171  and  _174
REMARK   75  A    between atoms: _174  and  _175
REMARK   76  A    between atoms: _178  and  _180
REMARK   77  A    between atoms: _180  and  _181
REMARK   78  A    between atoms: _180  and  _183
REMARK   79  A    between atoms: _183  and  _184
REMARK   80  A    between atoms: _184  and  _185
REMARK   81  A    between atoms: _188  and  _190
REMARK   82  A    between atoms: _190  and  _191
REMARK   83  A    between atoms: _193  and  _195
REMARK   84  A    between atoms: _195  and  _196
REMARK   85  A    between atoms: _195  and  _198
REMARK   86  A    between atoms: _198  and  _199
REMARK   87  A    between atoms: _199  and  _200
REMARK   88  A    between atoms: _200  and  _201
REMARK   89  A    between atoms: _210  and  _212
REMARK   90  A    between atoms: _212  and  _213
REMARK   91  A    between atoms: _212  and  _215
REMARK   92  A    between atoms: _215  and  _216
REMARK   93  A    between atoms: _216  and  _217
REMARK   94  A    between atoms: _217  and  _218
REMARK   95  A    between atoms: _218  and  _219
REMARK   96  A    between atoms: _223  and  _225
REMARK   97  A    between atoms: _225  and  _226
REMARK   98  A    between atoms: _225  and  _228
REMARK   99  A    between atoms: _228  and  _229
REMARK  100  A    between atoms: _235  and  _237
REMARK  101  A    between atoms: _237  and  _238
REMARK  102  A    between atoms: _237  and  _240
REMARK  103  A    between atoms: _240  and  _241
REMARK  104  A    between atoms: _247  and  _249
REMARK  105  A    between atoms: _249  and  _250
REMARK  106  A    between atoms: _249  and  _252
REMARK  107  A    between atoms: _252  and  _253
REMARK  108  A    between atoms: _256  and  _258
REMARK  109  A    between atoms: _258  and  _259
REMARK  110  A    between atoms: _258  and  _261
REMARK  111  A    between atoms: _261  and  _262
REMARK  112  A    between atoms: _268  and  _270
REMARK  113  A    between atoms: _270  and  _271
REMARK  114  A    between atoms: _270  and  _273
REMARK  115  A    between atoms: _273  and  _274
REMARK  116  A    between atoms: _277  and  _279
REMARK  117  A    between atoms: _279  and  _280
REMARK  118  A    between atoms: _279  and  _282
REMARK  119  A    between atoms: _282  and  _283
REMARK  120  A    between atoms: _283  and  _284
REMARK  121  A    between atoms: _284  and  _285
REMARK  122  A    between atoms: _285  and  _286
REMARK  123  A    between atoms: _290  and  _292
REMARK  124  A    between atoms: _292  and  _293
REMARK  125  A    between atoms: _292  and  _295
REMARK  126  A    between atoms: _295  and  _296
REMARK  127  A    between atoms: _299  and  _301
REMARK  128  A    between atoms: _301  and  _302
REMARK  129  A    between atoms: _301  and  _304
REMARK  130  A    between atoms: _304  and  _305
REMARK  131  A    between atoms: _310  and  _312
REMARK  132  A    between atoms: _312  and  _313
REMARK  133  A    between atoms: _312  and  _315
REMARK  134  A    between atoms: _315  and  _316
REMARK  135  A    between atoms: _316  and  _317
REMARK  136  A    between atoms: _317  and  _318
REMARK  137  A    between atoms: _318  and  _319
REMARK  138  A    between atoms: _323  and  _325
REMARK  139  A    between atoms: _325  and  _326
REMARK  140  A    between atoms: _325  and  _328
REMARK  141  A    between atoms: _328  and  _329
REMARK  142  A    between atoms: _331  and  _333
REMARK  143  A    between atoms: _333  and  _334
REMARK  144  A    between atoms: _333  and  _336
REMARK  145  A    between atoms: _336  and  _337
REMARK  146  A    between atoms: _340  and  _342
REMARK  147  A    between atoms: _342  and  _343
REMARK  148  A    between atoms: _342  and  _345
REMARK  149  A    between atoms: _345  and  _346
REMARK  150  A    between atoms: _346  and  _347
REMARK  151  A    between atoms: _350  and  _352
REMARK  152  A    between atoms: _352  and  _353
REMARK  153  A    between atoms: _356  and  _357
REMARK  154  A    between atoms: _363  and  _364
REMARK  155  A    between atoms: _369  and  _371
REMARK  156  A    between atoms: _371  and  _372
REMARK  157  A    between atoms: _371  and  _374
REMARK  158  A    between atoms: _374  and  _375
REMARK  159  A    between atoms: _381  and  _383
REMARK  160  A    between atoms: _383  and  _384
REMARK  161  A    between atoms: _383  and  _386
REMARK  162  A    between atoms: _386  and  _387
REMARK  163  A    between atoms: _390  and  _392
REMARK  164  A    between atoms: _392  and  _393
REMARK  165  A    between atoms: _392  and  _395
REMARK  166  A    between atoms: _395  and  _396
REMARK  167  A    between atoms: _401  and  _403
REMARK  168  A    between atoms: _403  and  _404
REMARK  169  A    between atoms: _406  and  _408
REMARK  170  A    between atoms: _408  and  _409
REMARK  171  A    between atoms: _411  and  _413
REMARK  172  A    between atoms: _413  and  _414
REMARK  173  A    between atoms: _417  and  _419
REMARK  174  A    between atoms: _419  and  _420
REMARK  175  A    between atoms: _419  and  _422
REMARK  176  A    between atoms: _422  and  _423
REMARK  177  A    between atoms: _426  and  _428
REMARK  178  A    between atoms: _428  and  _429
REMARK  179  A    between atoms: _432  and  _434
REMARK  180  A    between atoms: _434  and  _435
REMARK  181  A    between atoms: _434  and  _437
REMARK  182  A    between atoms: _437  and  _438
REMARK  183  A    between atoms: _443  and  _445
REMARK  184  A    between atoms: _445  and  _446
REMARK  185  A    between atoms: _445  and  _448
REMARK  186  A    between atoms: _448  and  _449
REMARK  187  A    between atoms: _452  and  _454
REMARK  188  A    between atoms: _454  and  _455
REMARK  189  A    between atoms: _454  and  _457
REMARK  190  A    between atoms: _457  and  _458
REMARK  191  A    between atoms: _463  and  _465
REMARK  192  A    between atoms: _465  and  _466
REMARK  193  A    between atoms: _465  and  _468
REMARK  194  A    between atoms: _468  and  _469
REMARK  195  A    between atoms: _474  and  _475
REMARK  196  A    between atoms: _477  and  _479
REMARK  197  A    between atoms: _479  and  _480
REMARK  198  A    between atoms: _479  and  _482
REMARK  199  A    between atoms: _482  and  _483
REMARK  200  A    between atoms: _483  and  _484
REMARK  201  A    between atoms: _484  and  _485
REMARK  202  A    between atoms: _485  and  _486
REMARK  203  A    between atoms: _490  and  _492
REMARK  204  A    between atoms: _492  and  _493
REMARK  205  A    between atoms: _492  and  _495
REMARK  206  A    between atoms: _495  and  _496
REMARK  207  A    between atoms: _496  and  _497
REMARK  208  A    between atoms: _497  and  _498
REMARK  209  A    between atoms: _508  and  _509
REMARK  210  A    between atoms: _514  and  _516
REMARK  211  A    between atoms: _516  and  _517
REMARK  212  A    between atoms: _516  and  _519
REMARK  213  A    between atoms: _519  and  _520
REMARK  214  A    between atoms: _524  and  _525
REMARK  215  A    between atoms: _530  and  _532
REMARK  216  A    between atoms: _532  and  _533
REMARK  217  A    between atoms: _532  and  _535
REMARK  218  A    between atoms: _535  and  _536
REMARK  219  A    between atoms: _539  and  _541
REMARK  220  A    between atoms: _541  and  _542
REMARK  221  A    between atoms: _541  and  _544
REMARK  222  A    between atoms: _544  and  _545
REMARK  223  A    between atoms: _550  and  _551
REMARK  224  A    between atoms: _553  and  _555
REMARK  225  A    between atoms: _555  and  _556
REMARK  226  A    between atoms: _555  and  _558
REMARK  227  A    between atoms: _558  and  _559
REMARK  228  A    between atoms: _561  and  _563
REMARK  229  A    between atoms: _563  and  _564
REMARK  230  A    between atoms: _563  and  _566
REMARK  231  A    between atoms: _566  and  _567
REMARK  232  A    between atoms: _567  and  _568
REMARK                            x       y       z     vdW  Elec       q    Type
REMARK                         _______ _______ _______ _____ _____    ______ ____
ROOT
ATOM      1  CA  LYS A   4      35.120  65.696  33.464  0.00  0.00    +0.149 C 
ENDROOT
BRANCH   1   2
ATOM      2  C   LYS A   4      35.624  66.780  34.434  0.00  0.00    +0.241 C 
ATOM      3  N   PHE A   5      34.925  66.928  35.563  0.00  0.00    -0.297 N 
ATOM      4  H   PHE A   5      34.066  66.356  35.691  0.00  0.00    +0.150 HD
ATOM      5  O   LYS A   4      36.626  67.449  34.162  0.00  0.00    -0.273 OA
BRANCH   3   6
ATOM      6  CA  PHE A   5      35.310  67.857  36.630  0.00  0.00    +0.153 C 
BRANCH   6   7
ATOM      7  C   PHE A   5      35.619  67.083  37.902  0.00  0.00    +0.241 C 
ATOM      8  O   PHE A   5      34.770  66.362  38.426  0.00  0.00    -0.273 OA
ATOM      9  N   PHE A   6      36.858  67.197  38.364  0.00  0.00    -0.298 N 
ATOM     10  H   PHE A   6      37.525  67.821  37.867  0.00  0.00    +0.150 HD
BRANCH   9  11
ATOM     11  CA  PHE A   6      37.313  66.476  39.546  0.00  0.00    +0.141 C 
BRANCH  11  12
ATOM     12  C   PHE A   6      37.340  67.429  40.731  0.00  0.00    +0.227 C 
ATOM     13  O   PHE A   6      38.179  68.331  40.795  0.00  0.00    -0.286 OA
ENDBRANCH  11  12
BRANCH  11  14
ATOM     14  CB  PHE A   6      38.694  65.865  39.303  0.00  0.00    +0.054 C 
BRANCH  14  15
ATOM     15  CG  PHE A   6      38.713  64.835  38.202  0.00  0.00    -0.020 A 
ATOM     16  CD2 PHE A   6      38.604  63.479  38.496  0.00  0.00    -0.004 A 
ATOM     17  CE2 PHE A   6      38.614  62.521  37.464  0.00  0.00    -0.000 A 
ATOM     18  CZ  PHE A   6      38.735  62.934  36.141  0.00  0.00    -0.000 A 
ATOM     19  CE1 PHE A   6      38.846  64.284  35.845  0.00  0.00    -0.000 A 
ATOM     20  CD1 PHE A   6      38.829  65.222  36.871  0.00  0.00    -0.004 A 
ENDBRANCH  14  15
ENDBRANCH  11  14
ENDBRANCH   9  11
ENDBRANCH   6   7
BRANCH   6  21
ATOM     21  CB  PHE A   5      34.210  68.894  36.873  0.00  0.00    +0.055 C 
BRANCH  21  22
ATOM     22  CG  PHE A   5      34.093  69.911  35.775  0.00  0.00    -0.020 A 
ATOM     23  CD2 PHE A   5      34.399  71.245  36.002  0.00  0.00    -0.004 A 
ATOM     24  CE2 PHE A   5      34.300  72.175  34.976  0.00  0.00    -0.000 A 
ATOM     25  CZ  PHE A   5      33.897  71.778  33.708  0.00  0.00    -0.000 A 
ATOM     26  CE1 PHE A   5      33.591  70.472  33.469  0.00  0.00    -0.000 A 
ATOM     27  CD1 PHE A   5      33.691  69.535  34.500  0.00  0.00    -0.004 A 
ENDBRANCH  21  22
ENDBRANCH   6  21
ENDBRANCH   3   6
ENDBRANCH   1   2
BRANCH   1  30
ATOM     28  C   ARG A   3      33.716  66.690  31.726  0.00  0.00    +0.241 C 
ATOM     29  O   ARG A   3      32.770  66.834  32.502  0.00  0.00    -0.273 OA
ATOM     30  N   LYS A   4      34.887  66.188  32.104  0.00  0.00    -0.297 N 
ATOM     31  H   LYS A   4      35.662  66.143  31.412  0.00  0.00    +0.150 HD
BRANCH  28  32
ATOM     32  CA  ARG A   3      33.603  67.145  30.253  0.00  0.00    +0.149 C 
BRANCH  32  35
ATOM     33  C   GLY A   2      35.782  67.954  29.550  0.00  0.00    +0.243 C 
ATOM     34  O   GLY A   2      35.654  68.994  30.182  0.00  0.00    -0.273 OA
ATOM     35  N   ARG A   3      34.863  66.992  29.542  0.00  0.00    -0.297 N 
ATOM     36  H   ARG A   3      35.049  66.114  29.017  0.00  0.00    +0.150 HD
BRANCH  33  37
ATOM     37  CA  GLY A   2      37.026  67.707  28.735  0.00  0.00    +0.176 C 
BRANCH  37  40
ATOM     38  C   GLU A   1      38.316  66.836  30.570  0.00  0.00    +0.238 C 
ATOM     39  O   GLU A   1      37.520  65.918  30.744  0.00  0.00    -0.274 OA
ATOM     40  N   GLY A   2      38.188  67.716  29.587  0.00  0.00    -0.296 N 
ATOM     41  H   GLY A   2      38.935  68.422  29.429  0.00  0.00    +0.150 HD
BRANCH  38  42
ATOM     42  CA  GLU A   1      39.500  67.036  31.515  0.00  0.00    +0.145 C 
BRANCH  42  43
ATOM     43  N   GLU A   1      39.042  67.813  32.660  0.00  0.00    -0.238 NA
ATOM     44  H   GLU A   1      38.107  67.604  33.065  0.00  0.00    +0.142 HD
ENDBRANCH  42  43
BRANCH  42  45
ATOM     45  CB  GLU A   1      40.033  65.679  31.969  0.00  0.00    +0.038 C 
BRANCH  45  46
ATOM     46  CG  GLU A   1      41.441  65.716  32.532  0.00  0.00    +0.116 C 
BRANCH  46  47
ATOM     47  CD  GLU A   1      41.916  64.353  33.017  0.00  0.00    +0.365 C 
ATOM     48  OE2 GLU A   1      42.978  64.305  33.674  0.00  0.00    -0.246 OA
ATOM     49  OE1 GLU A   1      41.233  63.331  32.751  0.00  0.00    -0.246 OA
ENDBRANCH  46  47
ENDBRANCH  45  46
ENDBRANCH  42  45
ENDBRANCH  38  42
ENDBRANCH  37  40
ENDBRANCH  33  37
ENDBRANCH  32  35
BRANCH  32  50
ATOM     50  CB  ARG A   3      32.476  66.409  29.520  0.00  0.00    +0.033 C 
BRANCH  50  51
ATOM     51  CG  ARG A   3      32.042  67.080  28.209  0.00  0.00    +0.045 C 
BRANCH  51  52
ATOM     52  CD  ARG A   3      30.673  66.576  27.740  0.00  0.00    +0.174 C 
BRANCH  52  53
ATOM     53  NE  ARG A   3      30.633  65.116  27.678  0.00  0.00    -0.265 N 
ATOM     54  CZ  ARG A   3      29.602  64.359  28.059  0.00  0.00    +0.342 C 
ATOM     55  NH2 ARG A   3      28.497  64.915  28.547  0.00  0.00    -0.292 N 
ATOM     56 HH21 ARG A   3      27.699  64.316  28.841  0.00  0.00    +0.255 HD
ATOM     57 HH22 ARG A   3      28.430  65.949  28.635  0.00  0.00    +0.255 HD
ATOM     58  NH1 ARG A   3      29.682  63.033  27.959  0.00  0.00    -0.292 N 
ATOM     59 HH11 ARG A   3      28.881  62.440  28.255  0.00  0.00    +0.255 HD
ATOM     60 HH12 ARG A   3      30.546  62.591  27.585  0.00  0.00    +0.255 HD
ATOM     61  HE  ARG A   3      31.474  64.629  27.308  0.00  0.00    +0.259 HD
ENDBRANCH  52  53
ENDBRANCH  51  52
ENDBRANCH  50  51
ENDBRANCH  32  50
ENDBRANCH  28  32
ENDBRANCH   1  30
BRANCH   1  62
ATOM     62  CB  LYS A   4      36.122  64.534  33.443  0.00  0.00    +0.029 C 
BRANCH  62  63
ATOM     63  CG  LYS A   4      35.729  63.338  32.557  0.00  0.00    +0.000 C 
BRANCH  63  64
ATOM     64  CD  LYS A   4      36.791  62.242  32.660  0.00  0.00    -0.024 C 
BRANCH  64  65
ATOM     65  CE  LYS A   4      36.719  61.299  31.489  0.00  0.00    -0.086 C 
BRANCH  65  66
ATOM     66  NZ  LYS A   4      36.682  62.073  30.205  0.00  0.00    +0.380 N 
ATOM     67  HZ1 LYS A   4      35.846  62.691  30.198  0.00  0.00    -0.089 HD
ATOM     68  HZ2 LYS A   4      37.543  62.652  30.125  0.00  0.00    -0.089 HD
ATOM     69  HZ3 LYS A   4      36.632  61.411  29.404  0.00  0.00    -0.089 HD
ENDBRANCH  65  66
ENDBRANCH  64  65
ENDBRANCH  63  64
ENDBRANCH  62  63
ENDBRANCH   1  62
TORSDOF 28
REMARK  Name = ../refined-set-2016/4gah/4gah_pocket.pdb
REMARK  232 active torsions:
REMARK  status: ('A' for Active; 'I' for Inactive)
REMARK    1  A    between atoms: _1  and  _3
REMARK    2  A    between atoms: _3  and  _4
REMARK    3  A    between atoms: _3  and  _6
REMARK    4  A    between atoms: _6  and  _7
REMARK    5  A    between atoms: _7  and  _8
REMARK    6  A    between atoms: _8  and  _9
REMARK    7  A    between atoms: _18  and  _20
REMARK    8  A    between atoms: _20  and  _21
REMARK    9  A    between atoms: _20  and  _23
REMARK   10  A    between atoms: _23  and  _24
REMARK   11  A    between atoms: _27  and  _29
REMARK   12  A    between atoms: _29  and  _30
REMARK   13  A    between atoms: _29  and  _32
REMARK   14  A    between atoms: _32  and  _33
REMARK   15  A    between atoms: _39  and  _41
REMARK   16  A    between atoms: _41  and  _42
REMARK   17  A    between atoms: _41  and  _44
REMARK   18  A    between atoms: _44  and  _45
REMARK   19  A    between atoms: _48  and  _50
REMARK   20  A    between atoms: _50  and  _51
REMARK   21  A    between atoms: _50  and  _53
REMARK   22  A    between atoms: _53  and  _54
REMARK   23  A    between atoms: _57  and  _59
REMARK   24  A    between atoms: _59  and  _60
REMARK   25  A    between atoms: _59  and  _62
REMARK   26  A    between atoms: _62  and  _63
REMARK   27  A    between atoms: _66  and  _68
REMARK   28  A    between atoms: _68  and  _69
REMARK   29  A    between atoms: _72  and  _74
REMARK   30  A    between atoms: _74  and  _75
REMARK   31  A    between atoms: _74  and  _77
REMARK   32  A    between atoms: _77  and  _78
REMARK   33  A    between atoms: _81  and  _83
REMARK   34  A    between atoms: _83  and  _84
REMARK   35  A    between atoms: _83  and  _86
REMARK   36  A    between atoms: _89  and  _91
REMARK   37  A    between atoms: _91  and  _92
REMARK   38  A    between atoms: _94  and  _96
REMARK   39  A    between atoms: _96  and  _97
REMARK   40  A    between atoms: _96  and  _99
REMARK   41  A    between atoms: _99  and  _100
REMARK   42  A    between atoms: _100  and  _101
REMARK   43  A    between atoms: _103  and  _105
REMARK   44  A    between atoms: _105  and  _106
REMARK   45  A    between atoms: _105  and  _108
REMARK   46  A    between atoms: _108  and  _109
REMARK   47  A    between atoms: _109  and  _110
REMARK   48  A    between atoms: _112  and  _114
REMARK   49  A    between atoms: _114  and  _115
REMARK   50  A    between atoms: _117  and  _119
REMARK   51  A    between atoms: _119  and  _120
REMARK   52  A    between atoms: _119  and  _122
REMARK   53  A    between atoms: _122  and  _123
REMARK   54  A    between atoms: _126  and  _128
REMARK   55  A    between atoms: _128  and  _129
REMARK   56  A    between atoms: _128  and  _131
REMARK   57  A    between atoms: _134  and  _136
REMARK   58  A    between atoms: _136  and  _137
REMARK   59  A    between atoms: _136  and  _139
REMARK   60  A    between atoms: _139  and  _140
REMARK   61  A    between atoms: _140  and  _141
REMARK   62  A    between atoms: _143  and  _145
REMARK   63  A    between atoms: _145  and  _146
REMARK   64  A    between atoms: _145  and  _148
REMARK   65  A    between atoms: _148  and  _149
REMARK   66  A    between atoms: _152  and  _154
REMARK   67  A    between atoms: _154  and  _155
REMARK   68  A    between atoms: _158  and  _160
REMARK   69  A    between atoms: _160  and  _161
REMARK   70  A    between atoms: _160  and  _163
REMARK   71  A    between atoms: _163  and  _164
REMARK   72  A    between atoms: _169  and  _171
REMARK   73  A    between atoms: _171  and  _172
REMARK   74  A    between atoms: _171  and  _174
REMARK   75  A    between atoms: _174  and  _175
REMARK   76  A    between atoms: _178  and  _180
REMARK   77  A    between atoms: _180  and  _181
REMARK   78  A    between atoms: _180  and  _183
REMARK   79  A    between atoms: _183  and  _184
REMARK   80  A    between atoms: _184  and  _185
REMARK   81  A    between atoms: _188  and  _190
REMARK   82  A    between atoms: _190  and  _191
REMARK   83  A    between atoms: _193  and  _195
REMARK   84  A    between atoms: _195  and  _196
REMARK   85  A    between atoms: _195  and  _198
REMARK   86  A    between atoms: _198  and  _199
REMARK   87  A    between atoms: _199  and  _200
REMARK   88  A    between atoms: _200  and  _201
REMARK   89  A    between atoms: _210  and  _212
REMARK   90  A    between atoms: _212  and  _213
REMARK   91  A    between atoms: _212  and  _215
REMARK   92  A    between atoms: _215  and  _216
REMARK   93  A    between atoms: _216  and  _217
REMARK   94  A    between atoms: _217  and  _218
REMARK   95  A    between atoms: _218  and  _219
REMARK   96  A    between atoms: _223  and  _225
REMARK   97  A    between atoms: _225  and  _226
REMARK   98  A    between atoms: _225  and  _228
REMARK   99  A    between atoms: _228  and  _229
REMARK  100  A    between atoms: _235  and  _237
REMARK  101  A    between atoms: _237  and  _238
REMARK  102  A    between atoms: _237  and  _240
REMARK  103  A    between atoms: _240  and  _241
REMARK  104  A    between atoms: _247  and  _249
REMARK  105  A    between atoms: _249  and  _250
REMARK  106  A    between atoms: _249  and  _252
REMARK  107  A    between atoms: _252  and  _253
REMARK  108  A    between atoms: _256  and  _258
REMARK  109  A    between atoms: _258  and  _259
REMARK  110  A    between atoms: _258  and  _261
REMARK  111  A    between atoms: _261  and  _262
REMARK  112  A    between atoms: _268  and  _270
REMARK  113  A    between atoms: _270  and  _271
REMARK  114  A    between atoms: _270  and  _273
REMARK  115  A    between atoms: _273  and  _274
REMARK  116  A    between atoms: _277  and  _279
REMARK  117  A    between atoms: _279  and  _280
REMARK  118  A    between atoms: _279  and  _282
REMARK  119  A    between atoms: _282  and  _283
REMARK  120  A    between atoms: _283  and  _284
REMARK  121  A    between atoms: _284  and  _285
REMARK  122  A    between atoms: _285  and  _286
REMARK  123  A    between atoms: _290  and  _292
REMARK  124  A    between atoms: _292  and  _293
REMARK  125  A    between atoms: _292  and  _295
REMARK  126  A    between atoms: _295  and  _296
REMARK  127  A    between atoms: _299  and  _301
REMARK  128  A    between atoms: _301  and  _302
REMARK  129  A    between atoms: _301  and  _304
REMARK  130  A    between atoms: _304  and  _305
REMARK  131  A    between atoms: _310  and  _312
REMARK  132  A    between atoms: _312  and  _313
REMARK  133  A    between atoms: _312  and  _315
REMARK  134  A    between atoms: _315  and  _316
REMARK  135  A    between atoms: _316  and  _317
REMARK  136  A    between atoms: _317  and  _318
REMARK  137  A    between atoms: _318  and  _319
REMARK  138  A    between atoms: _323  and  _325
REMARK  139  A    between atoms: _325  and  _326
REMARK  140  A    between atoms: _325  and  _328
REMARK  141  A    between atoms: _328  and  _329
REMARK  142  A    between atoms: _331  and  _333
REMARK  143  A    between atoms: _333  and  _334
REMARK  144  A    between atoms: _333  and  _336
REMARK  145  A    between atoms: _336  and  _337
REMARK  146  A    between atoms: _340  and  _342
REMARK  147  A    between atoms: _342  and  _343
REMARK  148  A    between atoms: _342  and  _345
REMARK  149  A    between atoms: _345  and  _346
REMARK  150  A    between atoms: _346  and  _347
REMARK  151  A    between atoms: _350  and  _352
REMARK  152  A    between atoms: _352  and  _353
REMARK  153  A    between atoms: _356  and  _357
REMARK  154  A    between atoms: _363  and  _364
REMARK  155  A    between atoms: _369  and  _371
REMARK  156  A    between atoms: _371  and  _372
REMARK  157  A    between atoms: _371  and  _374
REMARK  158  A    between atoms: _374  and  _375
REMARK  159  A    between atoms: _381  and  _383
REMARK  160  A    between atoms: _383  and  _384
REMARK  161  A    between atoms: _383  and  _386
REMARK  162  A    between atoms: _386  and  _387
REMARK  163  A    between atoms: _390  and  _392
REMARK  164  A    between atoms: _392  and  _393
REMARK  165  A    between atoms: _392  and  _395
REMARK  166  A    between atoms: _395  and  _396
REMARK  167  A    between atoms: _401  and  _403
REMARK  168  A    between atoms: _403  and  _404
REMARK  169  A    between atoms: _406  and  _408
REMARK  170  A    between atoms: _408  and  _409
REMARK  171  A    between atoms: _411  and  _413
REMARK  172  A    between atoms: _413  and  _414
REMARK  173  A    between atoms: _417  and  _419
REMARK  174  A    between atoms: _419  and  _420
REMARK  175  A    between atoms: _419  and  _422
REMARK  176  A    between atoms: _422  and  _423
REMARK  177  A    between atoms: _426  and  _428
REMARK  178  A    between atoms: _428  and  _429
REMARK  179  A    between atoms: _432  and  _434
REMARK  180  A    between atoms: _434  and  _435
REMARK  181  A    between atoms: _434  and  _437
REMARK  182  A    between atoms: _437  and  _438
REMARK  183  A    between atoms: _443  and  _445
REMARK  184  A    between atoms: _445  and  _446
REMARK  185  A    between atoms: _445  and  _448
REMARK  186  A    between atoms: _448  and  _449
REMARK  187  A    between atoms: _452  and  _454
REMARK  188  A    between atoms: _454  and  _455
REMARK  189  A    between atoms: _454  and  _457
REMARK  190  A    between atoms: _457  and  _458
REMARK  191  A    between atoms: _463  and  _465
REMARK  192  A    between atoms: _465  and  _466
REMARK  193  A    between atoms: _465  and  _468
REMARK  194  A    between atoms: _468  and  _469
REMARK  195  A    between atoms: _474  and  _475
REMARK  196  A    between atoms: _477  and  _479
REMARK  197  A    between atoms: _479  and  _480
REMARK  198  A    between atoms: _479  and  _482
REMARK  199  A    between atoms: _482  and  _483
REMARK  200  A    between atoms: _483  and  _484
REMARK  201  A    between atoms: _484  and  _485
REMARK  202  A    between atoms: _485  and  _486
REMARK  203  A    between atoms: _490  and  _492
REMARK  204  A    between atoms: _492  and  _493
REMARK  205  A    between atoms: _492  and  _495
REMARK  206  A    between atoms: _495  and  _496
REMARK  207  A    between atoms: _496  and  _497
REMARK  208  A    between atoms: _497  and  _498
REMARK  209  A    between atoms: _508  and  _509
REMARK  210  A    between atoms: _514  and  _516
REMARK  211  A    between atoms: _516  and  _517
REMARK  212  A    between atoms: _516  and  _519
REMARK  213  A    between atoms: _519  and  _520
REMARK  214  A    between atoms: _524  and  _525
REMARK  215  A    between atoms: _530  and  _532
REMARK  216  A    between atoms: _532  and  _533
REMARK  217  A    between atoms: _532  and  _535
REMARK  218  A    between atoms: _535  and  _536
REMARK  219  A    between atoms: _539  and  _541
REMARK  220  A    between atoms: _541  and  _542
REMARK  221  A    between atoms: _541  and  _544
REMARK  222  A    between atoms: _544  and  _545
REMARK  223  A    between atoms: _550  and  _551
REMARK  224  A    between atoms: _553  and  _555
REMARK  225  A    between atoms: _555  and  _556
REMARK  226  A    between atoms: _555  and  _558
REMARK  227  A    between atoms: _558  and  _559
REMARK  228  A    between atoms: _561  and  _563
REMARK  229  A    between atoms: _563  and  _564
REMARK  230  A    between atoms: _563  and  _566
REMARK  231  A    between atoms: _566  and  _567
REMARK  232  A    between atoms: _567  and  _568
REMARK                            x       y       z     vdW  Elec       q    Type
REMARK                         _______ _______ _______ _____ _____    ______ ____
ROOT
ATOM      1  C   ILE A   3      29.400  66.460  33.491  0.00  0.00    +0.241 C 
ATOM      2  O   ILE A   3      28.203  66.526  33.757  0.00  0.00    -0.273 OA
ATOM      3  N   LYS A   4      30.029  67.394  32.788  0.00  0.00    -0.297 N 
ATOM      4  H   LYS A   4      31.059  67.336  32.660  0.00  0.00    +0.150 HD
ENDROOT
BRANCH   1   5
ATOM      5  CA  ILE A   3      30.251  65.300  34.012  0.00  0.00    +0.149 C 
BRANCH   5   8
ATOM      6  C   PHE A   2      31.272  65.610  36.191  0.00  0.00    +0.241 C 
ATOM      7  O   PHE A   2      32.350  65.916  35.687  0.00  0.00    -0.273 OA
ATOM      8  N   ILE A   3      30.212  65.282  35.468  0.00  0.00    -0.297 N 
ATOM      9  H   ILE A   3      29.333  65.006  35.950  0.00  0.00    +0.150 HD
BRANCH   6  10
ATOM     10  CA  PHE A   2      31.097  65.568  37.706  0.00  0.00    +0.153 C 
BRANCH  10  13
ATOM     11  C   LEU A   1      32.279  63.854  38.996  0.00  0.00    +0.238 C 
ATOM     12  O   LEU A   1      31.252  63.209  39.223  0.00  0.00    -0.274 OA
ATOM     13  N   PHE A   2      32.284  65.024  38.358  0.00  0.00    -0.297 N 
ATOM     14  H   PHE A   2      33.168  65.571  38.323  0.00  0.00    +0.150 HD
BRANCH  11  15
ATOM     15  CA  LEU A   1      33.637  63.348  39.475  0.00  0.00    +0.145 C 
BRANCH  15  16
ATOM     16  N   LEU A   1      33.535  63.074  40.890  0.00  0.00    -0.238 NA
ATOM     17  H   LEU A   1      32.767  62.458  41.224  0.00  0.00    +0.142 HD
ENDBRANCH  15  16
BRANCH  15  18
ATOM     18  CB  LEU A   1      34.032  62.093  38.710  0.00  0.00    +0.026 C 
BRANCH  18  19
ATOM     19  CG  LEU A   1      34.005  62.166  37.172  0.00  0.00    +0.002 C 
ATOM     20  CD2 LEU A   1      35.010  63.173  36.639  0.00  0.00    +0.000 C 
ATOM     21  CD1 LEU A   1      34.271  60.789  36.589  0.00  0.00    +0.000 C 
ENDBRANCH  18  19
ENDBRANCH  15  18
ENDBRANCH  11  15
ENDBRANCH  10  13
BRANCH  10  22
ATOM     22  CB  PHE A   2      30.767  66.959  38.261  0.00  0.00    +0.055 C 
BRANCH  22  23
ATOM     23  CG  PHE A   2      30.266  66.914  39.664  0.00  0.00    -0.020 A 
ATOM     24  CD2 PHE A   2      31.156  66.781  40.725  0.00  0.00    -0.004 A 
ATOM     25  CE2 PHE A   2      30.698  66.685  42.041  0.00  0.00    -0.000 A 
ATOM     26  CZ  PHE A   2      29.343  66.692  42.290  0.00  0.00    -0.000 A 
ATOM     27  CE1 PHE A   2      28.441  66.791  41.240  0.00  0.00    -0.000 A 
ATOM     28  CD1 PHE A   2      28.903  66.909  39.928  0.00  0.00    -0.004 A 
ENDBRANCH  22  23
ENDBRANCH  10  22
ENDBRANCH   6  10
ENDBRANCH   5   8
BRANCH   5  29
ATOM     29  CB  ILE A   3      29.749  63.969  33.418  0.00  0.00    +0.027 C 
ATOM     30  CG2 ILE A   3      29.888  63.973  31.909  0.00  0.00    +0.002 C 
BRANCH  29  31
ATOM     31  CG1 ILE A   3      30.525  62.789  34.015  0.00  0.00    +0.002 C 
ATOM     32  CD1 ILE A   3      31.977  62.774  33.619  0.00  0.00    +0.000 C 
ENDBRANCH  29  31
ENDBRANCH   5  29
ENDBRANCH   1   5
BRANCH   3  33
ATOM     33  CA  LYS A   4      29.290  68.498  32.195  0.00  0.00    +0.149 C 
BRANCH  33  34
ATOM     34  C   LYS A   4      28.321  67.932  31.162  0.00  0.00    +0.241 C 
ATOM     35  N   LEU A   5      27.044  68.271  31.283  0.00  0.00    -0.297 N 
ATOM     36  H   LEU A   5      26.747  68.914  32.045  0.00  0.00    +0.150 HD
ATOM     37  O   LYS A   4      28.715  67.162  30.292  0.00  0.00    -0.273 OA
BRANCH  35  38
ATOM     38  CA  LEU A   5      26.057  67.744  30.351  0.00  0.00    +0.149 C 
BRANCH  38  39
ATOM     39  C   LEU A   5      26.190  68.342  28.953  0.00  0.00    +0.241 C 
ATOM     40  O   LEU A   5      26.558  69.505  28.787  0.00  0.00    -0.273 OA
ATOM     41  N   ASN A   6      25.874  67.547  27.942  0.00  0.00    -0.298 N 
ATOM     42  H   ASN A   6      25.712  66.534  28.110  0.00  0.00    +0.150 HD
BRANCH  41  43
ATOM     43  CA  ASN A   6      25.754  68.087  26.602  0.00  0.00    +0.146 C 
BRANCH  43  44
ATOM     44  C   ASN A   6      24.287  68.286  26.255  0.00  0.00    +0.227 C 
ATOM     45  O   ASN A   6      23.605  67.328  25.894  0.00  0.00    -0.286 OA
ENDBRANCH  43  44
BRANCH  43  46
ATOM     46  CB  ASN A   6      26.418  67.179  25.579  0.00  0.00    +0.112 C 
BRANCH  46  47
ATOM     47  CG  ASN A   6      26.325  67.738  24.182  0.00  0.00    +0.222 C 
ATOM     48  OD1 ASN A   6      25.806  68.842  23.977  0.00  0.00    -0.275 OA
ATOM     49  ND2 ASN A   6      26.826  66.991  23.211  0.00  0.00    -0.329 N 
ATOM     50 HD21 ASN A   6      27.253  66.069  23.432  0.00  0.00    +0.145 HD
ATOM     51 HD22 ASN A   6      26.793  67.326  22.227  0.00  0.00    +0.145 HD
ENDBRANCH  46  47
ENDBRANCH  43  46
ENDBRANCH  41  43
ENDBRANCH  38  39
BRANCH  38  52
ATOM     52  CB  LEU A   5      24.649  68.015  30.862  0.00  0.00    +0.029 C 
BRANCH  52  53
ATOM     53  CG  LEU A   5      24.170  67.286  32.111  0.00  0.00    +0.002 C 
ATOM     54  CD2 LEU A   5      22.666  67.431  32.156  0.00  0.00    +0.000 C 
ATOM     55  CD1 LEU A   5      24.569  65.817  32.104  0.00  0.00    +0.000 C 
ENDBRANCH  52  53
ENDBRANCH  38  52
ENDBRANCH  35  38
ENDBRANCH  33  34
BRANCH  33  56
ATOM     56  CB  LYS A   4      30.246  69.515  31.561  0.00  0.00    +0.029 C 
BRANCH  56  57
ATOM     57  CG  LYS A   4      29.540  70.678  30.888  0.00  0.00    +0.000 C 
BRANCH  57  58
ATOM     58  CD  LYS A   4      30.476  71.838  30.655  0.00  0.00    -0.024 C 
BRANCH  58  59
ATOM     59  CE  LYS A   4      29.760  73.011  29.993  0.00  0.00    -0.086 C 
BRANCH  59  60
ATOM     60  NZ  LYS A   4      28.423  73.276  30.592  0.00  0.00    +0.380 N 
ATOM     61  HZ1 LYS A   4      28.535  73.498  31.602  0.00  0.00    -0.089 HD
ATOM     62  HZ2 LYS A   4      27.823  72.433  30.485  0.00  0.00    -0.089 HD
ATOM     63  HZ3 LYS A   4      27.980  74.082  30.106  0.00  0.00    -0.089 HD
ENDBRANCH  59  60
ENDBRANCH  58  59
ENDBRANCH  57  58
ENDBRANCH  56  57
ENDBRANCH  33  56
ENDBRANCH   3  33
TORSDOF 27
REMARK  Name = ../refined-set-2016/4gah/4gah_pocket.pdb
REMARK  232 active torsions:
REMARK  status: ('A' for Active; 'I' for Inactive)
REMARK    1  A    between atoms: _1  and  _3
REMARK    2  A    between atoms: _3  and  _4
REMARK    3  A    between atoms: _3  and  _6
REMARK    4  A    between atoms: _6  and  _7
REMARK    5  A    between atoms: _7  and  _8
REMARK    6  A    between atoms: _8  and  _9
REMARK    7  A    between atoms: _18  and  _20
REMARK    8  A    between atoms: _20  and  _21
REMARK    9  A    between atoms: _20  and  _23
REMARK   10  A    between atoms: _23  and  _24
REMARK   11  A    between atoms: _27  and  _29
REMARK   12  A    between atoms: _29  and  _30
REMARK   13  A    between atoms: _29  and  _32
REMARK   14  A    between atoms: _32  and  _33
REMARK   15  A    between atoms: _39  and  _41
REMARK   16  A    between atoms: _41  and  _42
REMARK   17  A    between atoms: _41  and  _44
REMARK   18  A    between atoms: _44  and  _45
REMARK   19  A    between atoms: _48  and  _50
REMARK   20  A    between atoms: _50  and  _51
REMARK   21  A    between atoms: _50  and  _53
REMARK   22  A    between atoms: _53  and  _54
REMARK   23  A    between atoms: _57  and  _59
REMARK   24  A    between atoms: _59  and  _60
REMARK   25  A    between atoms: _59  and  _62
REMARK   26  A    between atoms: _62  and  _63
REMARK   27  A    between atoms: _66  and  _68
REMARK   28  A    between atoms: _68  and  _69
REMARK   29  A    between atoms: _72  and  _74
REMARK   30  A    between atoms: _74  and  _75
REMARK   31  A    between atoms: _74  and  _77
REMARK   32  A    between atoms: _77  and  _78
REMARK   33  A    between atoms: _81  and  _83
REMARK   34  A    between atoms: _83  and  _84
REMARK   35  A    between atoms: _83  and  _86
REMARK   36  A    between atoms: _89  and  _91
REMARK   37  A    between atoms: _91  and  _92
REMARK   38  A    between atoms: _94  and  _96
REMARK   39  A    between atoms: _96  and  _97
REMARK   40  A    between atoms: _96  and  _99
REMARK   41  A    between atoms: _99  and  _100
REMARK   42  A    between atoms: _100  and  _101
REMARK   43  A    between atoms: _103  and  _105
REMARK   44  A    between atoms: _105  and  _106
REMARK   45  A    between atoms: _105  and  _108
REMARK   46  A    between atoms: _108  and  _109
REMARK   47  A    between atoms: _109  and  _110
REMARK   48  A    between atoms: _112  and  _114
REMARK   49  A    between atoms: _114  and  _115
REMARK   50  A    between atoms: _117  and  _119
REMARK   51  A    between atoms: _119  and  _120
REMARK   52  A    between atoms: _119  and  _122
REMARK   53  A    between atoms: _122  and  _123
REMARK   54  A    between atoms: _126  and  _128
REMARK   55  A    between atoms: _128  and  _129
REMARK   56  A    between atoms: _128  and  _131
REMARK   57  A    between atoms: _134  and  _136
REMARK   58  A    between atoms: _136  and  _137
REMARK   59  A    between atoms: _136  and  _139
REMARK   60  A    between atoms: _139  and  _140
REMARK   61  A    between atoms: _140  and  _141
REMARK   62  A    between atoms: _143  and  _145
REMARK   63  A    between atoms: _145  and  _146
REMARK   64  A    between atoms: _145  and  _148
REMARK   65  A    between atoms: _148  and  _149
REMARK   66  A    between atoms: _152  and  _154
REMARK   67  A    between atoms: _154  and  _155
REMARK   68  A    between atoms: _158  and  _160
REMARK   69  A    between atoms: _160  and  _161
REMARK   70  A    between atoms: _160  and  _163
REMARK   71  A    between atoms: _163  and  _164
REMARK   72  A    between atoms: _169  and  _171
REMARK   73  A    between atoms: _171  and  _172
REMARK   74  A    between atoms: _171  and  _174
REMARK   75  A    between atoms: _174  and  _175
REMARK   76  A    between atoms: _178  and  _180
REMARK   77  A    between atoms: _180  and  _181
REMARK   78  A    between atoms: _180  and  _183
REMARK   79  A    between atoms: _183  and  _184
REMARK   80  A    between atoms: _184  and  _185
REMARK   81  A    between atoms: _188  and  _190
REMARK   82  A    between atoms: _190  and  _191
REMARK   83  A    between atoms: _193  and  _195
REMARK   84  A    between atoms: _195  and  _196
REMARK   85  A    between atoms: _195  and  _198
REMARK   86  A    between atoms: _198  and  _199
REMARK   87  A    between atoms: _199  and  _200
REMARK   88  A    between atoms: _200  and  _201
REMARK   89  A    between atoms: _210  and  _212
REMARK   90  A    between atoms: _212  and  _213
REMARK   91  A    between atoms: _212  and  _215
REMARK   92  A    between atoms: _215  and  _216
REMARK   93  A    between atoms: _216  and  _217
REMARK   94  A    between atoms: _217  and  _218
REMARK   95  A    between atoms: _218  and  _219
REMARK   96  A    between atoms: _223  and  _225
REMARK   97  A    between atoms: _225  and  _226
REMARK   98  A    between atoms: _225  and  _228
REMARK   99  A    between atoms: _228  and  _229
REMARK  100  A    between atoms: _235  and  _237
REMARK  101  A    between atoms: _237  and  _238
REMARK  102  A    between atoms: _237  and  _240
REMARK  103  A    between atoms: _240  and  _241
REMARK  104  A    between atoms: _247  and  _249
REMARK  105  A    between atoms: _249  and  _250
REMARK  106  A    between atoms: _249  and  _252
REMARK  107  A    between atoms: _252  and  _253
REMARK  108  A    between atoms: _256  and  _258
REMARK  109  A    between atoms: _258  and  _259
REMARK  110  A    between atoms: _258  and  _261
REMARK  111  A    between atoms: _261  and  _262
REMARK  112  A    between atoms: _268  and  _270
REMARK  113  A    between atoms: _270  and  _271
REMARK  114  A    between atoms: _270  and  _273
REMARK  115  A    between atoms: _273  and  _274
REMARK  116  A    between atoms: _277  and  _279
REMARK  117  A    between atoms: _279  and  _280
REMARK  118  A    between atoms: _279  and  _282
REMARK  119  A    between atoms: _282  and  _283
REMARK  120  A    between atoms: _283  and  _284
REMARK  121  A    between atoms: _284  and  _285
REMARK  122  A    between atoms: _285  and  _286
REMARK  123  A    between atoms: _290  and  _292
REMARK  124  A    between atoms: _292  and  _293
REMARK  125  A    between atoms: _292  and  _295
REMARK  126  A    between atoms: _295  and  _296
REMARK  127  A    between atoms: _299  and  _301
REMARK  128  A    between atoms: _301  and  _302
REMARK  129  A    between atoms: _301  and  _304
REMARK  130  A    between atoms: _304  and  _305
REMARK  131  A    between atoms: _310  and  _312
REMARK  132  A    between atoms: _312  and  _313
REMARK  133  A    between atoms: _312  and  _315
REMARK  134  A    between atoms: _315  and  _316
REMARK  135  A    between atoms: _316  and  _317
REMARK  136  A    between atoms: _317  and  _318
REMARK  137  A    between atoms: _318  and  _319
REMARK  138  A    between atoms: _323  and  _325
REMARK  139  A    between atoms: _325  and  _326
REMARK  140  A    between atoms: _325  and  _328
REMARK  141  A    between atoms: _328  and  _329
REMARK  142  A    between atoms: _331  and  _333
REMARK  143  A    between atoms: _333  and  _334
REMARK  144  A    between atoms: _333  and  _336
REMARK  145  A    between atoms: _336  and  _337
REMARK  146  A    between atoms: _340  and  _342
REMARK  147  A    between atoms: _342  and  _343
REMARK  148  A    between atoms: _342  and  _345
REMARK  149  A    between atoms: _345  and  _346
REMARK  150  A    between atoms: _346  and  _347
REMARK  151  A    between atoms: _350  and  _352
REMARK  152  A    between atoms: _352  and  _353
REMARK  153  A    between atoms: _356  and  _357
REMARK  154  A    between atoms: _363  and  _364
REMARK  155  A    between atoms: _369  and  _371
REMARK  156  A    between atoms: _371  and  _372
REMARK  157  A    between atoms: _371  and  _374
REMARK  158  A    between atoms: _374  and  _375
REMARK  159  A    between atoms: _381  and  _383
REMARK  160  A    between atoms: _383  and  _384
REMARK  161  A    between atoms: _383  and  _386
REMARK  162  A    between atoms: _386  and  _387
REMARK  163  A    between atoms: _390  and  _392
REMARK  164  A    between atoms: _392  and  _393
REMARK  165  A    between atoms: _392  and  _395
REMARK  166  A    between atoms: _395  and  _396
REMARK  167  A    between atoms: _401  and  _403
REMARK  168  A    between atoms: _403  and  _404
REMARK  169  A    between atoms: _406  and  _408
REMARK  170  A    between atoms: _408  and  _409
REMARK  171  A    between atoms: _411  and  _413
REMARK  172  A    between atoms: _413  and  _414
REMARK  173  A    between atoms: _417  and  _419
REMARK  174  A    between atoms: _419  and  _420
REMARK  175  A    between atoms: _419  and  _422
REMARK  176  A    between atoms: _422  and  _423
REMARK  177  A    between atoms: _426  and  _428
REMARK  178  A    between atoms: _428  and  _429
REMARK  179  A    between atoms: _432  and  _434
REMARK  180  A    between atoms: _434  and  _435
REMARK  181  A    between atoms: _434  and  _437
REMARK  182  A    between atoms: _437  and  _438
REMARK  183  A    between atoms: _443  and  _445
REMARK  184  A    between atoms: _445  and  _446
REMARK  185  A    between atoms: _445  and  _448
REMARK  186  A    between atoms: _448  and  _449
REMARK  187  A    between atoms: _452  and  _454
REMARK  188  A    between atoms: _454  and  _455
REMARK  189  A    between atoms: _454  and  _457
REMARK  190  A    between atoms: _457  and  _458
REMARK  191  A    between atoms: _463  and  _465
REMARK  192  A    between atoms: _465  and  _466
REMARK  193  A    between atoms: _465  and  _468
REMARK  194  A    between atoms: _468  and  _469
REMARK  195  A    between atoms: _474  and  _475
REMARK  196  A    between atoms: _477  and  _479
REMARK  197  A    between atoms: _479  and  _480
REMARK  198  A    between atoms: _479  and  _482
REMARK  199  A    between atoms: _482  and  _483
REMARK  200  A    between atoms: _483  and  _484
REMARK  201  A    between atoms: _484  and  _485
REMARK  202  A    between atoms: _485  and  _486
REMARK  203  A    between atoms: _490  and  _492
REMARK  204  A    between atoms: _492  and  _493
REMARK  205  A    between atoms: _492  and  _495
REMARK  206  A    between atoms: _495  and  _496
REMARK  207  A    between atoms: _496  and  _497
REMARK  208  A    between atoms: _497  and  _498
REMARK  209  A    between atoms: _508  and  _509
REMARK  210  A    between atoms: _514  and  _516
REMARK  211  A    between atoms: _516  and  _517
REMARK  212  A    between atoms: _516  and  _519
REMARK  213  A    between atoms: _519  and  _520
REMARK  214  A    between atoms: _524  and  _525
REMARK  215  A    between atoms: _530  and  _532
REMARK  216  A    between atoms: _532  and  _533
REMARK  217  A    between atoms: _532  and  _535
REMARK  218  A    between atoms: _535  and  _536
REMARK  219  A    between atoms: _539  and  _541
REMARK  220  A    between atoms: _541  and  _542
REMARK  221  A    between atoms: _541  and  _544
REMARK  222  A    between atoms: _544  and  _545
REMARK  223  A    between atoms: _550  and  _551
REMARK  224  A    between atoms: _553  and  _555
REMARK  225  A    between atoms: _555  and  _556
REMARK  226  A    between atoms: _555  and  _558
REMARK  227  A    between atoms: _558  and  _559
REMARK  228  A    between atoms: _561  and  _563
REMARK  229  A    between atoms: _563  and  _564
REMARK  230  A    between atoms: _563  and  _566
REMARK  231  A    between atoms: _566  and  _567
REMARK  232  A    between atoms: _567  and  _568
REMARK                            x       y       z     vdW  Elec       q    Type
REMARK                         _______ _______ _______ _____ _____    ______ ____
ROOT
ATOM      1  CA  LYS A   1      21.818  65.163  23.812  0.00  0.00    +0.145 C 
ENDROOT
BRANCH   1   2
ATOM      2  C   LYS A   1      20.784  64.725  24.841  0.00  0.00    +0.238 C 
ATOM      3  N   SER A   2      20.733  65.427  25.968  0.00  0.00    -0.296 N 
ATOM      4  H   SER A   2      21.236  66.336  26.016  0.00  0.00    +0.150 HD
ATOM      5  O   LYS A   1      20.061  63.755  24.620  0.00  0.00    -0.274 OA
BRANCH   3   6
ATOM      6  CA  SER A   2      19.992  64.966  27.148  0.00  0.00    +0.166 C 
BRANCH   6   7
ATOM      7  CB  SER A   2      18.494  64.672  26.930  0.00  0.00    +0.229 C 
ATOM      8  OG  SER A   2      18.073  64.132  25.903  0.00  0.00    -0.286 OA
ENDBRANCH   6   7
BRANCH   6   9
ATOM      9  C   SER A   2      20.192  65.948  28.309  0.00  0.00    +0.165 C 
BRANCH   9  10
ATOM     10  O   SER A   2      20.097  67.288  27.855  0.00  0.00    -0.380 OA
ATOM     11  H   SER A   2      20.229  67.904  28.619  0.00  0.00    +0.211 HD
ENDBRANCH   9  10
ENDBRANCH   6   9
ENDBRANCH   3   6
ENDBRANCH   1   2
BRANCH   1  12
ATOM     12  N   LYS A   1      22.020  66.622  23.736  0.00  0.00    -0.238 NA
ATOM     13  H   LYS A   1      22.148  67.171  24.610  0.00  0.00    +0.142 HD
ENDBRANCH   1  12
BRANCH   1  14
ATOM     14  CB  LYS A   1      23.124  64.422  24.129  0.00  0.00    +0.026 C 
BRANCH  14  15
ATOM     15  CG  LYS A   1      24.282  64.712  23.216  0.00  0.00    -0.000 C 
BRANCH  15  16
ATOM     16  CD  LYS A   1      24.306  63.805  22.036  0.00  0.00    -0.024 C 
BRANCH  16  17
ATOM     17  CE  LYS A   1      25.630  63.926  21.294  0.00  0.00    -0.086 C 
BRANCH  17  18
ATOM     18  NZ  LYS A   1      25.683  63.013  20.116  0.00  0.00    +0.380 N 
ATOM     19  HZ1 LYS A   1      25.573  62.030  20.436  0.00  0.00    -0.089 HD
ATOM     20  HZ2 LYS A   1      26.599  63.122  19.635  0.00  0.00    -0.089 HD
ATOM     21  HZ3 LYS A   1      24.914  63.253  19.458  0.00  0.00    -0.089 HD
ENDBRANCH  17  18
ENDBRANCH  16  17
ENDBRANCH  15  16
ENDBRANCH  14  15
ENDBRANCH   1  14
TORSDOF 11
REMARK  Name = ../refined-set-2016/4gah/4gah_pocket.pdb
REMARK  232 active torsions:
REMARK  status: ('A' for Active; 'I' for Inactive)
REMARK    1  A    between atoms: _1  and  _3
REMARK    2  A    between atoms: _3  and  _4
REMARK    3  A    between atoms: _3  and  _6
REMARK    4  A    between atoms: _6  and  _7
REMARK    5  A    between atoms: _7  and  _8
REMARK    6  A    between atoms: _8  and  _9
REMARK    7  A    between atoms: _18  and  _20
REMARK    8  A    between atoms: _20  and  _21
REMARK    9  A    between atoms: _20  and  _23
REMARK   10  A    between atoms: _23  and  _24
REMARK   11  A    between atoms: _27  and  _29
REMARK   12  A    between atoms: _29  and  _30
REMARK   13  A    between atoms: _29  and  _32
REMARK   14  A    between atoms: _32  and  _33
REMARK   15  A    between atoms: _39  and  _41
REMARK   16  A    between atoms: _41  and  _42
REMARK   17  A    between atoms: _41  and  _44
REMARK   18  A    between atoms: _44  and  _45
REMARK   19  A    between atoms: _48  and  _50
REMARK   20  A    between atoms: _50  and  _51
REMARK   21  A    between atoms: _50  and  _53
REMARK   22  A    between atoms: _53  and  _54
REMARK   23  A    between atoms: _57  and  _59
REMARK   24  A    between atoms: _59  and  _60
REMARK   25  A    between atoms: _59  and  _62
REMARK   26  A    between atoms: _62  and  _63
REMARK   27  A    between atoms: _66  and  _68
REMARK   28  A    between atoms: _68  and  _69
REMARK   29  A    between atoms: _72  and  _74
REMARK   30  A    between atoms: _74  and  _75
REMARK   31  A    between atoms: _74  and  _77
REMARK   32  A    between atoms: _77  and  _78
REMARK   33  A    between atoms: _81  and  _83
REMARK   34  A    between atoms: _83  and  _84
REMARK   35  A    between atoms: _83  and  _86
REMARK   36  A    between atoms: _89  and  _91
REMARK   37  A    between atoms: _91  and  _92
REMARK   38  A    between atoms: _94  and  _96
REMARK   39  A    between atoms: _96  and  _97
REMARK   40  A    between atoms: _96  and  _99
REMARK   41  A    between atoms: _99  and  _100
REMARK   42  A    between atoms: _100  and  _101
REMARK   43  A    between atoms: _103  and  _105
REMARK   44  A    between atoms: _105  and  _106
REMARK   45  A    between atoms: _105  and  _108
REMARK   46  A    between atoms: _108  and  _109
REMARK   47  A    between atoms: _109  and  _110
REMARK   48  A    between atoms: _112  and  _114
REMARK   49  A    between atoms: _114  and  _115
REMARK   50  A    between atoms: _117  and  _119
REMARK   51  A    between atoms: _119  and  _120
REMARK   52  A    between atoms: _119  and  _122
REMARK   53  A    between atoms: _122  and  _123
REMARK   54  A    between atoms: _126  and  _128
REMARK   55  A    between atoms: _128  and  _129
REMARK   56  A    between atoms: _128  and  _131
REMARK   57  A    between atoms: _134  and  _136
REMARK   58  A    between atoms: _136  and  _137
REMARK   59  A    between atoms: _136  and  _139
REMARK   60  A    between atoms: _139  and  _140
REMARK   61  A    between atoms: _140  and  _141
REMARK   62  A    between atoms: _143  and  _145
REMARK   63  A    between atoms: _145  and  _146
REMARK   64  A    between atoms: _145  and  _148
REMARK   65  A    between atoms: _148  and  _149
REMARK   66  A    between atoms: _152  and  _154
REMARK   67  A    between atoms: _154  and  _155
REMARK   68  A    between atoms: _158  and  _160
REMARK   69  A    between atoms: _160  and  _161
REMARK   70  A    between atoms: _160  and  _163
REMARK   71  A    between atoms: _163  and  _164
REMARK   72  A    between atoms: _169  and  _171
REMARK   73  A    between atoms: _171  and  _172
REMARK   74  A    between atoms: _171  and  _174
REMARK   75  A    between atoms: _174  and  _175
REMARK   76  A    between atoms: _178  and  _180
REMARK   77  A    between atoms: _180  and  _181
REMARK   78  A    between atoms: _180  and  _183
REMARK   79  A    between atoms: _183  and  _184
REMARK   80  A    between atoms: _184  and  _185
REMARK   81  A    between atoms: _188  and  _190
REMARK   82  A    between atoms: _190  and  _191
REMARK   83  A    between atoms: _193  and  _195
REMARK   84  A    between atoms: _195  and  _196
REMARK   85  A    between atoms: _195  and  _198
REMARK   86  A    between atoms: _198  and  _199
REMARK   87  A    between atoms: _199  and  _200
REMARK   88  A    between atoms: _200  and  _201
REMARK   89  A    between atoms: _210  and  _212
REMARK   90  A    between atoms: _212  and  _213
REMARK   91  A    between atoms: _212  and  _215
REMARK   92  A    between atoms: _215  and  _216
REMARK   93  A    between atoms: _216  and  _217
REMARK   94  A    between atoms: _217  and  _218
REMARK   95  A    between atoms: _218  and  _219
REMARK   96  A    between atoms: _223  and  _225
REMARK   97  A    between atoms: _225  and  _226
REMARK   98  A    between atoms: _225  and  _228
REMARK   99  A    between atoms: _228  and  _229
REMARK  100  A    between atoms: _235  and  _237
REMARK  101  A    between atoms: _237  and  _238
REMARK  102  A    between atoms: _237  and  _240
REMARK  103  A    between atoms: _240  and  _241
REMARK  104  A    between atoms: _247  and  _249
REMARK  105  A    between atoms: _249  and  _250
REMARK  106  A    between atoms: _249  and  _252
REMARK  107  A    between atoms: _252  and  _253
REMARK  108  A    between atoms: _256  and  _258
REMARK  109  A    between atoms: _258  and  _259
REMARK  110  A    between atoms: _258  and  _261
REMARK  111  A    between atoms: _261  and  _262
REMARK  112  A    between atoms: _268  and  _270
REMARK  113  A    between atoms: _270  and  _271
REMARK  114  A    between atoms: _270  and  _273
REMARK  115  A    between atoms: _273  and  _274
REMARK  116  A    between atoms: _277  and  _279
REMARK  117  A    between atoms: _279  and  _280
REMARK  118  A    between atoms: _279  and  _282
REMARK  119  A    between atoms: _282  and  _283
REMARK  120  A    between atoms: _283  and  _284
REMARK  121  A    between atoms: _284  and  _285
REMARK  122  A    between atoms: _285  and  _286
REMARK  123  A    between atoms: _290  and  _292
REMARK  124  A    between atoms: _292  and  _293
REMARK  125  A    between atoms: _292  and  _295
REMARK  126  A    between atoms: _295  and  _296
REMARK  127  A    between atoms: _299  and  _301
REMARK  128  A    between atoms: _301  and  _302
REMARK  129  A    between atoms: _301  and  _304
REMARK  130  A    between atoms: _304  and  _305
REMARK  131  A    between atoms: _310  and  _312
REMARK  132  A    between atoms: _312  and  _313
REMARK  133  A    between atoms: _312  and  _315
REMARK  134  A    between atoms: _315  and  _316
REMARK  135  A    between atoms: _316  and  _317
REMARK  136  A    between atoms: _317  and  _318
REMARK  137  A    between atoms: _318  and  _319
REMARK  138  A    between atoms: _323  and  _325
REMARK  139  A    between atoms: _325  and  _326
REMARK  140  A    between atoms: _325  and  _328
REMARK  141  A    between atoms: _328  and  _329
REMARK  142  A    between atoms: _331  and  _333
REMARK  143  A    between atoms: _333  and  _334
REMARK  144  A    between atoms: _333  and  _336
REMARK  145  A    between atoms: _336  and  _337
REMARK  146  A    between atoms: _340  and  _342
REMARK  147  A    between atoms: _342  and  _343
REMARK  148  A    between atoms: _342  and  _345
REMARK  149  A    between atoms: _345  and  _346
REMARK  150  A    between atoms: _346  and  _347
REMARK  151  A    between atoms: _350  and  _352
REMARK  152  A    between atoms: _352  and  _353
REMARK  153  A    between atoms: _356  and  _357
REMARK  154  A    between atoms: _363  and  _364
REMARK  155  A    between atoms: _369  and  _371
REMARK  156  A    between atoms: _371  and  _372
REMARK  157  A    between atoms: _371  and  _374
REMARK  158  A    between atoms: _374  and  _375
REMARK  159  A    between atoms: _381  and  _383
REMARK  160  A    between atoms: _383  and  _384
REMARK  161  A    between atoms: _383  and  _386
REMARK  162  A    between atoms: _386  and  _387
REMARK  163  A    between atoms: _390  and  _392
REMARK  164  A    between atoms: _392  and  _393
REMARK  165  A    between atoms: _392  and  _395
REMARK  166  A    between atoms: _395  and  _396
REMARK  167  A    between atoms: _401  and  _403
REMARK  168  A    between atoms: _403  and  _404
REMARK  169  A    between atoms: _406  and  _408
REMARK  170  A    between atoms: _408  and  _409
REMARK  171  A    between atoms: _411  and  _413
REMARK  172  A    between atoms: _413  and  _414
REMARK  173  A    between atoms: _417  and  _419
REMARK  174  A    between atoms: _419  and  _420
REMARK  175  A    between atoms: _419  and  _422
REMARK  176  A    between atoms: _422  and  _423
REMARK  177  A    between atoms: _426  and  _428
REMARK  178  A    between atoms: _428  and  _429
REMARK  179  A    between atoms: _432  and  _434
REMARK  180  A    between atoms: _434  and  _435
REMARK  181  A    between atoms: _434  and  _437
REMARK  182  A    between atoms: _437  and  _438
REMARK  183  A    between atoms: _443  and  _445
REMARK  184  A    between atoms: _445  and  _446
REMARK  185  A    between atoms: _445  and  _448
REMARK  186  A    between atoms: _448  and  _449
REMARK  187  A    between atoms: _452  and  _454
REMARK  188  A    between atoms: _454  and  _455
REMARK  189  A    between atoms: _454  and  _457
REMARK  190  A    between atoms: _457  and  _458
REMARK  191  A    between atoms: _463  and  _465
REMARK  192  A    between atoms: _465  and  _466
REMARK  193  A    between atoms: _465  and  _468
REMARK  194  A    between atoms: _468  and  _469
REMARK  195  A    between atoms: _474  and  _475
REMARK  196  A    between atoms: _477  and  _479
REMARK  197  A    between atoms: _479  and  _480
REMARK  198  A    between atoms: _479  and  _482
REMARK  199  A    between atoms: _482  and  _483
REMARK  200  A    between atoms: _483  and  _484
REMARK  201  A    between atoms: _484  and  _485
REMARK  202  A    between atoms: _485  and  _486
REMARK  203  A    between atoms: _490  and  _492
REMARK  204  A    between atoms: _492  and  _493
REMARK  205  A    between atoms: _492  and  _495
REMARK  206  A    between atoms: _495  and  _496
REMARK  207  A    between atoms: _496  and  _497
REMARK  208  A    between atoms: _497  and  _498
REMARK  209  A    between atoms: _508  and  _509
REMARK  210  A    between atoms: _514  and  _516
REMARK  211  A    between atoms: _516  and  _517
REMARK  212  A    between atoms: _516  and  _519
REMARK  213  A    between atoms: _519  and  _520
REMARK  214  A    between atoms: _524  and  _525
REMARK  215  A    between atoms: _530  and  _532
REMARK  216  A    between atoms: _532  and  _533
REMARK  217  A    between atoms: _532  and  _535
REMARK  218  A    between atoms: _535  and  _536
REMARK  219  A    between atoms: _539  and  _541
REMARK  220  A    between atoms: _541  and  _542
REMARK  221  A    between atoms: _541  and  _544
REMARK  222  A    between atoms: _544  and  _545
REMARK  223  A    between atoms: _550  and  _551
REMARK  224  A    between atoms: _553  and  _555
REMARK  225  A    between atoms: _555  and  _556
REMARK  226  A    between atoms: _555  and  _558
REMARK  227  A    between atoms: _558  and  _559
REMARK  228  A    between atoms: _561  and  _563
REMARK  229  A    between atoms: _563  and  _564
REMARK  230  A    between atoms: _563  and  _566
REMARK  231  A    between atoms: _566  and  _567
REMARK  232  A    between atoms: _567  and  _568
REMARK                            x       y       z     vdW  Elec       q    Type
REMARK                         _______ _______ _______ _____ _____    ______ ____
ROOT
ATOM      1  C   GLU A   2      15.664  66.895  43.897  0.00  0.00    +0.241 C 
ATOM      2  O   GLU A   2      16.031  67.596  44.828  0.00  0.00    -0.273 OA
ATOM      3  N   GLY A   3      16.426  66.626  42.852  0.00  0.00    -0.295 N 
ATOM      4  H   GLY A   3      16.095  65.931  42.153  0.00  0.00    +0.150 HD
ENDROOT
BRANCH   1   5
ATOM      5  CA  GLU A   2      14.295  66.249  43.894  0.00  0.00    +0.149 C 
BRANCH   5   8
ATOM      6  C   LEU A   1      14.443  64.736  45.777  0.00  0.00    +0.238 C 
ATOM      7  O   LEU A   1      15.466  64.215  45.318  0.00  0.00    -0.274 OA
ATOM      8  N   GLU A   2      13.865  65.789  45.208  0.00  0.00    -0.297 N 
ATOM      9  H   GLU A   2      13.100  66.289  45.705  0.00  0.00    +0.150 HD
BRANCH   6  10
ATOM     10  CA  LEU A   1      13.780  64.180  47.043  0.00  0.00    +0.145 C 
BRANCH  10  11
ATOM     11  N   LEU A   1      12.424  64.704  47.270  0.00  0.00    -0.238 NA
ATOM     12  H   LEU A   1      11.622  64.208  46.831  0.00  0.00    +0.142 HD
ENDBRANCH  10  11
BRANCH  10  13
ATOM     13  CB  LEU A   1      13.730  62.659  46.926  0.00  0.00    +0.026 C 
BRANCH  13  14
ATOM     14  CG  LEU A   1      13.152  61.916  48.130  0.00  0.00    +0.002 C 
ATOM     15  CD2 LEU A   1      13.748  62.488  49.400  0.00  0.00    +0.000 C 
ATOM     16  CD1 LEU A   1      13.396  60.401  48.031  0.00  0.00    +0.000 C 
ENDBRANCH  13  14
ENDBRANCH  10  13
ENDBRANCH   6  10
ENDBRANCH   5   8
BRANCH   5  17
ATOM     17  CB  GLU A   2      13.274  67.189  43.280  0.00  0.00    +0.041 C 
BRANCH  17  18
ATOM     18  CG  GLU A   2      13.448  67.362  41.781  0.00  0.00    +0.116 C 
BRANCH  18  19
ATOM     19  CD  GLU A   2      12.525  68.407  41.217  0.00  0.00    +0.365 C 
ATOM     20  OE2 GLU A   2      12.440  69.492  41.826  0.00  0.00    -0.246 OA
ATOM     21  OE1 GLU A   2      11.877  68.145  40.182  0.00  0.00    -0.246 OA
ENDBRANCH  18  19
ENDBRANCH  17  18
ENDBRANCH   5  17
ENDBRANCH   1   5
BRANCH   3  22
ATOM     22  CA  GLY A   3      17.709  67.269  42.648  0.00  0.00    +0.176 C 
BRANCH  22  23
ATOM     23  C   GLY A   3      17.594  67.934  41.299  0.00  0.00    +0.246 C 
ATOM     24  O   GLY A   3      16.937  68.952  41.174  0.00  0.00    -0.273 OA
ATOM     25  N   PRO A   4      18.215  67.347  40.273  0.00  0.00    -0.272 N 
ATOM     26  CD  PRO A   4      19.259  66.314  40.270  0.00  0.00    +0.094 C 
ATOM     27  CG  PRO A   4      19.702  66.284  38.839  0.00  0.00    +0.024 C 
ATOM     28  CB  PRO A   4      18.545  66.741  38.042  0.00  0.00    +0.031 C 
ATOM     29  CA  PRO A   4      17.871  67.787  38.927  0.00  0.00    +0.152 C 
BRANCH  29  30
ATOM     30  C   PRO A   4      16.366  67.696  38.771  0.00  0.00    +0.244 C 
ATOM     31  O   PRO A   4      15.759  66.755  39.287  0.00  0.00    -0.273 OA
ATOM     32  N   PRO A   5      15.763  68.665  38.075  0.00  0.00    -0.273 N 
ATOM     33  CA  PRO A   5      14.317  68.660  37.851  0.00  0.00    +0.140 C 
ATOM     34  CB  PRO A   5      14.130  69.803  36.854  0.00  0.00    +0.030 C 
ATOM     35  CG  PRO A   5      15.255  70.745  37.167  0.00  0.00    +0.024 C 
ATOM     36  CD  PRO A   5      16.413  69.862  37.509  0.00  0.00    +0.094 C 
BRANCH  33  37
ATOM     37  C   PRO A   5      13.851  67.344  37.242  0.00  0.00    +0.227 C 
ATOM     38  O   PRO A   5      14.323  66.974  36.171  0.00  0.00    -0.286 OA
ENDBRANCH  33  37
ENDBRANCH  29  30
ENDBRANCH  22  23
ENDBRANCH   3  22
TORSDOF 13
REMARK  Name = ../refined-set-2016/4gah/4gah_pocket.pdb
REMARK  232 active torsions:
REMARK  status: ('A' for Active; 'I' for Inactive)
REMARK    1  A    between atoms: _1  and  _3
REMARK    2  A    between atoms: _3  and  _4
REMARK    3  A    between atoms: _3  and  _6
REMARK    4  A    between atoms: _6  and  _7
REMARK    5  A    between atoms: _7  and  _8
REMARK    6  A    between atoms: _8  and  _9
REMARK    7  A    between atoms: _18  and  _20
REMARK    8  A    between atoms: _20  and  _21
REMARK    9  A    between atoms: _20  and  _23
REMARK   10  A    between atoms: _23  and  _24
REMARK   11  A    between atoms: _27  and  _29
REMARK   12  A    between atoms: _29  and  _30
REMARK   13  A    between atoms: _29  and  _32
REMARK   14  A    between atoms: _32  and  _33
REMARK   15  A    between atoms: _39  and  _41
REMARK   16  A    between atoms: _41  and  _42
REMARK   17  A    between atoms: _41  and  _44
REMARK   18  A    between atoms: _44  and  _45
REMARK   19  A    between atoms: _48  and  _50
REMARK   20  A    between atoms: _50  and  _51
REMARK   21  A    between atoms: _50  and  _53
REMARK   22  A    between atoms: _53  and  _54
REMARK   23  A    between atoms: _57  and  _59
REMARK   24  A    between atoms: _59  and  _60
REMARK   25  A    between atoms: _59  and  _62
REMARK   26  A    between atoms: _62  and  _63
REMARK   27  A    between atoms: _66  and  _68
REMARK   28  A    between atoms: _68  and  _69
REMARK   29  A    between atoms: _72  and  _74
REMARK   30  A    between atoms: _74  and  _75
REMARK   31  A    between atoms: _74  and  _77
REMARK   32  A    between atoms: _77  and  _78
REMARK   33  A    between atoms: _81  and  _83
REMARK   34  A    between atoms: _83  and  _84
REMARK   35  A    between atoms: _83  and  _86
REMARK   36  A    between atoms: _89  and  _91
REMARK   37  A    between atoms: _91  and  _92
REMARK   38  A    between atoms: _94  and  _96
REMARK   39  A    between atoms: _96  and  _97
REMARK   40  A    between atoms: _96  and  _99
REMARK   41  A    between atoms: _99  and  _100
REMARK   42  A    between atoms: _100  and  _101
REMARK   43  A    between atoms: _103  and  _105
REMARK   44  A    between atoms: _105  and  _106
REMARK   45  A    between atoms: _105  and  _108
REMARK   46  A    between atoms: _108  and  _109
REMARK   47  A    between atoms: _109  and  _110
REMARK   48  A    between atoms: _112  and  _114
REMARK   49  A    between atoms: _114  and  _115
REMARK   50  A    between atoms: _117  and  _119
REMARK   51  A    between atoms: _119  and  _120
REMARK   52  A    between atoms: _119  and  _122
REMARK   53  A    between atoms: _122  and  _123
REMARK   54  A    between atoms: _126  and  _128
REMARK   55  A    between atoms: _128  and  _129
REMARK   56  A    between atoms: _128  and  _131
REMARK   57  A    between atoms: _134  and  _136
REMARK   58  A    between atoms: _136  and  _137
REMARK   59  A    between atoms: _136  and  _139
REMARK   60  A    between atoms: _139  and  _140
REMARK   61  A    between atoms: _140  and  _141
REMARK   62  A    between atoms: _143  and  _145
REMARK   63  A    between atoms: _145  and  _146
REMARK   64  A    between atoms: _145  and  _148
REMARK   65  A    between atoms: _148  and  _149
REMARK   66  A    between atoms: _152  and  _154
REMARK   67  A    between atoms: _154  and  _155
REMARK   68  A    between atoms: _158  and  _160
REMARK   69  A    between atoms: _160  and  _161
REMARK   70  A    between atoms: _160  and  _163
REMARK   71  A    between atoms: _163  and  _164
REMARK   72  A    between atoms: _169  and  _171
REMARK   73  A    between atoms: _171  and  _172
REMARK   74  A    between atoms: _171  and  _174
REMARK   75  A    between atoms: _174  and  _175
REMARK   76  A    between atoms: _178  and  _180
REMARK   77  A    between atoms: _180  and  _181
REMARK   78  A    between atoms: _180  and  _183
REMARK   79  A    between atoms: _183  and  _184
REMARK   80  A    between atoms: _184  and  _185
REMARK   81  A    between atoms: _188  and  _190
REMARK   82  A    between atoms: _190  and  _191
REMARK   83  A    between atoms: _193  and  _195
REMARK   84  A    between atoms: _195  and  _196
REMARK   85  A    between atoms: _195  and  _198
REMARK   86  A    between atoms: _198  and  _199
REMARK   87  A    between atoms: _199  and  _200
REMARK   88  A    between atoms: _200  and  _201
REMARK   89  A    between atoms: _210  and  _212
REMARK   90  A    between atoms: _212  and  _213
REMARK   91  A    between atoms: _212  and  _215
REMARK   92  A    between atoms: _215  and  _216
REMARK   93  A    between atoms: _216  and  _217
REMARK   94  A    between atoms: _217  and  _218
REMARK   95  A    between atoms: _218  and  _219
REMARK   96  A    between atoms: _223  and  _225
REMARK   97  A    between atoms: _225  and  _226
REMARK   98  A    between atoms: _225  and  _228
REMARK   99  A    between atoms: _228  and  _229
REMARK  100  A    between atoms: _235  and  _237
REMARK  101  A    between atoms: _237  and  _238
REMARK  102  A    between atoms: _237  and  _240
REMARK  103  A    between atoms: _240  and  _241
REMARK  104  A    between atoms: _247  and  _249
REMARK  105  A    between atoms: _249  and  _250
REMARK  106  A    between atoms: _249  and  _252
REMARK  107  A    between atoms: _252  and  _253
REMARK  108  A    between atoms: _256  and  _258
REMARK  109  A    between atoms: _258  and  _259
REMARK  110  A    between atoms: _258  and  _261
REMARK  111  A    between atoms: _261  and  _262
REMARK  112  A    between atoms: _268  and  _270
REMARK  113  A    between atoms: _270  and  _271
REMARK  114  A    between atoms: _270  and  _273
REMARK  115  A    between atoms: _273  and  _274
REMARK  116  A    between atoms: _277  and  _279
REMARK  117  A    between atoms: _279  and  _280
REMARK  118  A    between atoms: _279  and  _282
REMARK  119  A    between atoms: _282  and  _283
REMARK  120  A    between atoms: _283  and  _284
REMARK  121  A    between atoms: _284  and  _285
REMARK  122  A    between atoms: _285  and  _286
REMARK  123  A    between atoms: _290  and  _292
REMARK  124  A    between atoms: _292  and  _293
REMARK  125  A    between atoms: _292  and  _295
REMARK  126  A    between atoms: _295  and  _296
REMARK  127  A    between atoms: _299  and  _301
REMARK  128  A    between atoms: _301  and  _302
REMARK  129  A    between atoms: _301  and  _304
REMARK  130  A    between atoms: _304  and  _305
REMARK  131  A    between atoms: _310  and  _312
REMARK  132  A    between atoms: _312  and  _313
REMARK  133  A    between atoms: _312  and  _315
REMARK  134  A    between atoms: _315  and  _316
REMARK  135  A    between atoms: _316  and  _317
REMARK  136  A    between atoms: _317  and  _318
REMARK  137  A    between atoms: _318  and  _319
REMARK  138  A    between atoms: _323  and  _325
REMARK  139  A    between atoms: _325  and  _326
REMARK  140  A    between atoms: _325  and  _328
REMARK  141  A    between atoms: _328  and  _329
REMARK  142  A    between atoms: _331  and  _333
REMARK  143  A    between atoms: _333  and  _334
REMARK  144  A    between atoms: _333  and  _336
REMARK  145  A    between atoms: _336  and  _337
REMARK  146  A    between atoms: _340  and  _342
REMARK  147  A    between atoms: _342  and  _343
REMARK  148  A    between atoms: _342  and  _345
REMARK  149  A    between atoms: _345  and  _346
REMARK  150  A    between atoms: _346  and  _347
REMARK  151  A    between atoms: _350  and  _352
REMARK  152  A    between atoms: _352  and  _353
REMARK  153  A    between atoms: _356  and  _357
REMARK  154  A    between atoms: _363  and  _364
REMARK  155  A    between atoms: _369  and  _371
REMARK  156  A    between atoms: _371  and  _372
REMARK  157  A    between atoms: _371  and  _374
REMARK  158  A    between atoms: _374  and  _375
REMARK  159  A    between atoms: _381  and  _383
REMARK  160  A    between atoms: _383  and  _384
REMARK  161  A    between atoms: _383  and  _386
REMARK  162  A    between atoms: _386  and  _387
REMARK  163  A    between atoms: _390  and  _392
REMARK  164  A    between atoms: _392  and  _393
REMARK  165  A    between atoms: _392  and  _395
REMARK  166  A    between atoms: _395  and  _396
REMARK  167  A    between atoms: _401  and  _403
REMARK  168  A    between atoms: _403  and  _404
REMARK  169  A    between atoms: _406  and  _408
REMARK  170  A    between atoms: _408  and  _409
REMARK  171  A    between atoms: _411  and  _413
REMARK  172  A    between atoms: _413  and  _414
REMARK  173  A    between atoms: _417  and  _419
REMARK  174  A    between atoms: _419  and  _420
REMARK  175  A    between atoms: _419  and  _422
REMARK  176  A    between atoms: _422  and  _423
REMARK  177  A    between atoms: _426  and  _428
REMARK  178  A    between atoms: _428  and  _429
REMARK  179  A    between atoms: _432  and  _434
REMARK  180  A    between atoms: _434  and  _435
REMARK  181  A    between atoms: _434  and  _437
REMARK  182  A    between atoms: _437  and  _438
REMARK  183  A    between atoms: _443  and  _445
REMARK  184  A    between atoms: _445  and  _446
REMARK  185  A    between atoms: _445  and  _448
REMARK  186  A    between atoms: _448  and  _449
REMARK  187  A    between atoms: _452  and  _454
REMARK  188  A    between atoms: _454  and  _455
REMARK  189  A    between atoms: _454  and  _457
REMARK  190  A    between atoms: _457  and  _458
REMARK  191  A    between atoms: _463  and  _465
REMARK  192  A    between atoms: _465  and  _466
REMARK  193  A    between atoms: _465  and  _468
REMARK  194  A    between atoms: _468  and  _469
REMARK  195  A    between atoms: _474  and  _475
REMARK  196  A    between atoms: _477  and  _479
REMARK  197  A    between atoms: _479  and  _480
REMARK  198  A    between atoms: _479  and  _482
REMARK  199  A    between atoms: _482  and  _483
REMARK  200  A    between atoms: _483  and  _484
REMARK  201  A    between atoms: _484  and  _485
REMARK  202  A    between atoms: _485  and  _486
REMARK  203  A    between atoms: _490  and  _492
REMARK  204  A    between atoms: _492  and  _493
REMARK  205  A    between atoms: _492  and  _495
REMARK  206  A    between atoms: _495  and  _496
REMARK  207  A    between atoms: _496  and  _497
REMARK  208  A    between atoms: _497  and  _498
REMARK  209  A    between atoms: _508  and  _509
REMARK  210  A    between atoms: _514  and  _516
REMARK  211  A    between atoms: _516  and  _517
REMARK  212  A    between atoms: _516  and  _519
REMARK  213  A    between atoms: _519  and  _520
REMARK  214  A    between atoms: _524  and  _525
REMARK  215  A    between atoms: _530  and  _532
REMARK  216  A    between atoms: _532  and  _533
REMARK  217  A    between atoms: _532  and  _535
REMARK  218  A    between atoms: _535  and  _536
REMARK  219  A    between atoms: _539  and  _541
REMARK  220  A    between atoms: _541  and  _542
REMARK  221  A    between atoms: _541  and  _544
REMARK  222  A    between atoms: _544  and  _545
REMARK  223  A    between atoms: _550  and  _551
REMARK  224  A    between atoms: _553  and  _555
REMARK  225  A    between atoms: _555  and  _556
REMARK  226  A    between atoms: _555  and  _558
REMARK  227  A    between atoms: _558  and  _559
REMARK  228  A    between atoms: _561  and  _563
REMARK  229  A    between atoms: _563  and  _564
REMARK  230  A    between atoms: _563  and  _566
REMARK  231  A    between atoms: _566  and  _567
REMARK  232  A    between atoms: _567  and  _568
REMARK                            x       y       z     vdW  Elec       q    Type
REMARK                         _______ _______ _______ _____ _____    ______ ____
ROOT
ATOM      1  C   HIS A   3      19.956  62.955  44.473  0.00  0.00    +0.241 C 
ATOM      2  O   HIS A   3      19.664  61.889  45.037  0.00  0.00    -0.273 OA
ATOM      3  N   GLY A   4      21.188  63.219  44.060  0.00  0.00    -0.295 N 
ATOM      4  H   GLY A   4      21.381  64.120  43.577  0.00  0.00    +0.150 HD
ENDROOT
BRANCH   1   5
ATOM      5  CA  HIS A   3      18.892  64.043  44.201  0.00  0.00    +0.155 C 
BRANCH   5   7
ATOM      6  C   ILE A   2      17.482  62.637  42.771  0.00  0.00    +0.241 C 
ATOM      7  N   HIS A   3      17.625  63.448  43.810  0.00  0.00    -0.297 N 
ATOM      8  H   HIS A   3      16.783  63.671  44.378  0.00  0.00    +0.150 HD
ATOM      9  O   ILE A   2      18.399  62.329  42.028  0.00  0.00    -0.273 OA
BRANCH   6  10
ATOM     10  CA  ILE A   2      16.078  62.117  42.550  0.00  0.00    +0.148 C 
BRANCH  10  12
ATOM     11  C   PHE A   1      15.412  63.361  40.558  0.00  0.00    +0.239 C 
ATOM     12  N   ILE A   2      15.695  62.205  41.150  0.00  0.00    -0.297 N 
ATOM     13  H   ILE A   2      15.640  61.330  40.590  0.00  0.00    +0.150 HD
ATOM     14  O   PHE A   1      15.473  64.447  41.125  0.00  0.00    -0.274 OA
BRANCH  11  15
ATOM     15  CA  PHE A   1      15.022  63.258  39.096  0.00  0.00    +0.149 C 
BRANCH  15  16
ATOM     16  N   PHE A   1      14.203  64.372  38.617  0.00  0.00    -0.238 NA
ATOM     17  H   PHE A   1      14.520  65.346  38.797  0.00  0.00    +0.142 HD
ENDBRANCH  15  16
BRANCH  15  18
ATOM     18  CB  PHE A   1      16.287  63.116  38.250  0.00  0.00    +0.053 C 
BRANCH  18  19
ATOM     19  CG  PHE A   1      16.005  62.890  36.809  0.00  0.00    -0.020 A 
ATOM     20  CD2 PHE A   1      15.788  61.625  36.333  0.00  0.00    -0.004 A 
ATOM     21  CE2 PHE A   1      15.507  61.415  35.016  0.00  0.00    -0.000 A 
ATOM     22  CZ  PHE A   1      15.431  62.480  34.149  0.00  0.00    -0.000 A 
ATOM     23  CE1 PHE A   1      15.633  63.744  34.608  0.00  0.00    -0.000 A 
ATOM     24  CD1 PHE A   1      15.916  63.951  35.939  0.00  0.00    -0.004 A 
ENDBRANCH  18  19
ENDBRANCH  15  18
ENDBRANCH  11  15
ENDBRANCH  10  12
BRANCH  10  25
ATOM     25  CB  ILE A   2      15.972  60.673  43.084  0.00  0.00    +0.027 C 
ATOM     26  CG2 ILE A   2      16.521  60.602  44.498  0.00  0.00    +0.002 C 
BRANCH  25  27
ATOM     27  CG1 ILE A   2      14.518  60.175  43.016  0.00  0.00    +0.002 C 
ATOM     28  CD1 ILE A   2      14.344  58.660  43.238  0.00  0.00    +0.000 C 
ENDBRANCH  25  27
ENDBRANCH  10  25
ENDBRANCH   6  10
ENDBRANCH   5   7
BRANCH   5  29
ATOM     29  CB  HIS A   3      18.611  64.895  45.436  0.00  0.00    +0.076 C 
BRANCH  29  30
ATOM     30  CG  HIS A   3      19.707  65.837  45.822  0.00  0.00    +0.082 A 
ATOM     31  ND1 HIS A   3      20.858  65.423  46.454  0.00  0.00    -0.227 NA
ATOM     32  CE1 HIS A   3      21.619  66.472  46.711  0.00  0.00    +0.199 A 
ATOM     33  NE2 HIS A   3      20.996  67.553  46.281  0.00  0.00    -0.221 NA
ATOM     34  CD2 HIS A   3      19.792  67.187  45.730  0.00  0.00    +0.115 A 
ENDBRANCH  29  30
ENDBRANCH   5  29
ENDBRANCH   1   5
BRANCH   3  35
ATOM     35  CA  GLY A   4      22.272  62.278  44.267  0.00  0.00    +0.176 C 
BRANCH  35  36
ATOM     36  C   GLY A   4      22.512  61.916  45.719  0.00  0.00    +0.243 C 
ATOM     37  N   GLY A   5      22.245  62.864  46.615  0.00  0.00    -0.295 N 
ATOM     38  H   GLY A   5      21.929  63.800  46.291  0.00  0.00    +0.150 HD
ATOM     39  O   GLY A   4      22.936  60.799  46.030  0.00  0.00    -0.273 OA
BRANCH  37  40
ATOM     40  CA  GLY A   5      22.387  62.613  48.029  0.00  0.00    +0.176 C 
BRANCH  40  41
ATOM     41  C   GLY A   5      21.261  61.750  48.565  0.00  0.00    +0.243 C 
ATOM     42  O   GLY A   5      21.460  60.994  49.491  0.00  0.00    -0.273 OA
ATOM     43  N   ALA A   6      20.067  61.870  47.995  0.00  0.00    -0.297 N 
ATOM     44  H   ALA A   6      19.922  62.582  47.251  0.00  0.00    +0.150 HD
BRANCH  43  45
ATOM     45  CA  ALA A   6      18.959  61.016  48.401  0.00  0.00    +0.149 C 
ATOM     46  CB  ALA A   6      17.631  61.592  47.918  0.00  0.00    +0.031 C 
BRANCH  45  47
ATOM     47  C   ALA A   6      19.166  59.585  47.872  0.00  0.00    +0.241 C 
ATOM     48  O   ALA A   6      18.709  58.615  48.490  0.00  0.00    -0.273 OA
ATOM     49  N   ILE A   7      19.859  59.462  46.733  0.00  0.00    -0.297 N 
ATOM     50  H   ILE A   7      20.107  60.312  46.188  0.00  0.00    +0.150 HD
BRANCH  49  51
ATOM     51  CA  ILE A   7      20.269  58.152  46.250  0.00  0.00    +0.149 C 
BRANCH  51  52
ATOM     52  C   ILE A   7      21.351  57.597  47.174  0.00  0.00    +0.241 C 
ATOM     53  O   ILE A   7      21.280  56.441  47.570  0.00  0.00    -0.273 OA
ATOM     54  N   ALA A   8      22.339  58.416  47.531  0.00  0.00    -0.298 N 
ATOM     55  H   ALA A   8      22.354  59.390  47.167  0.00  0.00    +0.150 HD
BRANCH  54  56
ATOM     56  CA  ALA A   8      23.404  57.965  48.429  0.00  0.00    +0.137 C 
ATOM     57  CB  ALA A   8      24.437  59.070  48.656  0.00  0.00    +0.030 C 
BRANCH  56  58
ATOM     58  C   ALA A   8      22.814  57.515  49.765  0.00  0.00    +0.227 C 
ATOM     59  O   ALA A   8      23.330  56.608  50.414  0.00  0.00    -0.286 OA
ENDBRANCH  56  58
ENDBRANCH  54  56
ENDBRANCH  51  52
BRANCH  51  60
ATOM     60  CB  ILE A   7      20.754  58.173  44.775  0.00  0.00    +0.027 C 
ATOM     61  CG2 ILE A   7      21.348  56.826  44.368  0.00  0.00    +0.002 C 
BRANCH  60  62
ATOM     62  CG1 ILE A   7      19.595  58.516  43.827  0.00  0.00    +0.002 C 
ATOM     63  CD1 ILE A   7      20.033  59.017  42.444  0.00  0.00    +0.000 C 
ENDBRANCH  60  62
ENDBRANCH  51  60
ENDBRANCH  49  51
ENDBRANCH  45  47
ENDBRANCH  43  45
ENDBRANCH  40  41
ENDBRANCH  37  40
ENDBRANCH  35  36
ENDBRANCH   3  35
TORSDOF 24
REMARK  Name = ../refined-set-2016/4gah/4gah_pocket.pdb
REMARK  232 active torsions:
REMARK  status: ('A' for Active; 'I' for Inactive)
REMARK    1  A    between atoms: _1  and  _3
REMARK    2  A    between atoms: _3  and  _4
REMARK    3  A    between atoms: _3  and  _6
REMARK    4  A    between atoms: _6  and  _7
REMARK    5  A    between atoms: _7  and  _8
REMARK    6  A    between atoms: _8  and  _9
REMARK    7  A    between atoms: _18  and  _20
REMARK    8  A    between atoms: _20  and  _21
REMARK    9  A    between atoms: _20  and  _23
REMARK   10  A    between atoms: _23  and  _24
REMARK   11  A    between atoms: _27  and  _29
REMARK   12  A    between atoms: _29  and  _30
REMARK   13  A    between atoms: _29  and  _32
REMARK   14  A    between atoms: _32  and  _33
REMARK   15  A    between atoms: _39  and  _41
REMARK   16  A    between atoms: _41  and  _42
REMARK   17  A    between atoms: _41  and  _44
REMARK   18  A    between atoms: _44  and  _45
REMARK   19  A    between atoms: _48  and  _50
REMARK   20  A    between atoms: _50  and  _51
REMARK   21  A    between atoms: _50  and  _53
REMARK   22  A    between atoms: _53  and  _54
REMARK   23  A    between atoms: _57  and  _59
REMARK   24  A    between atoms: _59  and  _60
REMARK   25  A    between atoms: _59  and  _62
REMARK   26  A    between atoms: _62  and  _63
REMARK   27  A    between atoms: _66  and  _68
REMARK   28  A    between atoms: _68  and  _69
REMARK   29  A    between atoms: _72  and  _74
REMARK   30  A    between atoms: _74  and  _75
REMARK   31  A    between atoms: _74  and  _77
REMARK   32  A    between atoms: _77  and  _78
REMARK   33  A    between atoms: _81  and  _83
REMARK   34  A    between atoms: _83  and  _84
REMARK   35  A    between atoms: _83  and  _86
REMARK   36  A    between atoms: _89  and  _91
REMARK   37  A    between atoms: _91  and  _92
REMARK   38  A    between atoms: _94  and  _96
REMARK   39  A    between atoms: _96  and  _97
REMARK   40  A    between atoms: _96  and  _99
REMARK   41  A    between atoms: _99  and  _100
REMARK   42  A    between atoms: _100  and  _101
REMARK   43  A    between atoms: _103  and  _105
REMARK   44  A    between atoms: _105  and  _106
REMARK   45  A    between atoms: _105  and  _108
REMARK   46  A    between atoms: _108  and  _109
REMARK   47  A    between atoms: _109  and  _110
REMARK   48  A    between atoms: _112  and  _114
REMARK   49  A    between atoms: _114  and  _115
REMARK   50  A    between atoms: _117  and  _119
REMARK   51  A    between atoms: _119  and  _120
REMARK   52  A    between atoms: _119  and  _122
REMARK   53  A    between atoms: _122  and  _123
REMARK   54  A    between atoms: _126  and  _128
REMARK   55  A    between atoms: _128  and  _129
REMARK   56  A    between atoms: _128  and  _131
REMARK   57  A    between atoms: _134  and  _136
REMARK   58  A    between atoms: _136  and  _137
REMARK   59  A    between atoms: _136  and  _139
REMARK   60  A    between atoms: _139  and  _140
REMARK   61  A    between atoms: _140  and  _141
REMARK   62  A    between atoms: _143  and  _145
REMARK   63  A    between atoms: _145  and  _146
REMARK   64  A    between atoms: _145  and  _148
REMARK   65  A    between atoms: _148  and  _149
REMARK   66  A    between atoms: _152  and  _154
REMARK   67  A    between atoms: _154  and  _155
REMARK   68  A    between atoms: _158  and  _160
REMARK   69  A    between atoms: _160  and  _161
REMARK   70  A    between atoms: _160  and  _163
REMARK   71  A    between atoms: _163  and  _164
REMARK   72  A    between atoms: _169  and  _171
REMARK   73  A    between atoms: _171  and  _172
REMARK   74  A    between atoms: _171  and  _174
REMARK   75  A    between atoms: _174  and  _175
REMARK   76  A    between atoms: _178  and  _180
REMARK   77  A    between atoms: _180  and  _181
REMARK   78  A    between atoms: _180  and  _183
REMARK   79  A    between atoms: _183  and  _184
REMARK   80  A    between atoms: _184  and  _185
REMARK   81  A    between atoms: _188  and  _190
REMARK   82  A    between atoms: _190  and  _191
REMARK   83  A    between atoms: _193  and  _195
REMARK   84  A    between atoms: _195  and  _196
REMARK   85  A    between atoms: _195  and  _198
REMARK   86  A    between atoms: _198  and  _199
REMARK   87  A    between atoms: _199  and  _200
REMARK   88  A    between atoms: _200  and  _201
REMARK   89  A    between atoms: _210  and  _212
REMARK   90  A    between atoms: _212  and  _213
REMARK   91  A    between atoms: _212  and  _215
REMARK   92  A    between atoms: _215  and  _216
REMARK   93  A    between atoms: _216  and  _217
REMARK   94  A    between atoms: _217  and  _218
REMARK   95  A    between atoms: _218  and  _219
REMARK   96  A    between atoms: _223  and  _225
REMARK   97  A    between atoms: _225  and  _226
REMARK   98  A    between atoms: _225  and  _228
REMARK   99  A    between atoms: _228  and  _229
REMARK  100  A    between atoms: _235  and  _237
REMARK  101  A    between atoms: _237  and  _238
REMARK  102  A    between atoms: _237  and  _240
REMARK  103  A    between atoms: _240  and  _241
REMARK  104  A    between atoms: _247  and  _249
REMARK  105  A    between atoms: _249  and  _250
REMARK  106  A    between atoms: _249  and  _252
REMARK  107  A    between atoms: _252  and  _253
REMARK  108  A    between atoms: _256  and  _258
REMARK  109  A    between atoms: _258  and  _259
REMARK  110  A    between atoms: _258  and  _261
REMARK  111  A    between atoms: _261  and  _262
REMARK  112  A    between atoms: _268  and  _270
REMARK  113  A    between atoms: _270  and  _271
REMARK  114  A    between atoms: _270  and  _273
REMARK  115  A    between atoms: _273  and  _274
REMARK  116  A    between atoms: _277  and  _279
REMARK  117  A    between atoms: _279  and  _280
REMARK  118  A    between atoms: _279  and  _282
REMARK  119  A    between atoms: _282  and  _283
REMARK  120  A    between atoms: _283  and  _284
REMARK  121  A    between atoms: _284  and  _285
REMARK  122  A    between atoms: _285  and  _286
REMARK  123  A    between atoms: _290  and  _292
REMARK  124  A    between atoms: _292  and  _293
REMARK  125  A    between atoms: _292  and  _295
REMARK  126  A    between atoms: _295  and  _296
REMARK  127  A    between atoms: _299  and  _301
REMARK  128  A    between atoms: _301  and  _302
REMARK  129  A    between atoms: _301  and  _304
REMARK  130  A    between atoms: _304  and  _305
REMARK  131  A    between atoms: _310  and  _312
REMARK  132  A    between atoms: _312  and  _313
REMARK  133  A    between atoms: _312  and  _315
REMARK  134  A    between atoms: _315  and  _316
REMARK  135  A    between atoms: _316  and  _317
REMARK  136  A    between atoms: _317  and  _318
REMARK  137  A    between atoms: _318  and  _319
REMARK  138  A    between atoms: _323  and  _325
REMARK  139  A    between atoms: _325  and  _326
REMARK  140  A    between atoms: _325  and  _328
REMARK  141  A    between atoms: _328  and  _329
REMARK  142  A    between atoms: _331  and  _333
REMARK  143  A    between atoms: _333  and  _334
REMARK  144  A    between atoms: _333  and  _336
REMARK  145  A    between atoms: _336  and  _337
REMARK  146  A    between atoms: _340  and  _342
REMARK  147  A    between atoms: _342  and  _343
REMARK  148  A    between atoms: _342  and  _345
REMARK  149  A    between atoms: _345  and  _346
REMARK  150  A    between atoms: _346  and  _347
REMARK  151  A    between atoms: _350  and  _352
REMARK  152  A    between atoms: _352  and  _353
REMARK  153  A    between atoms: _356  and  _357
REMARK  154  A    between atoms: _363  and  _364
REMARK  155  A    between atoms: _369  and  _371
REMARK  156  A    between atoms: _371  and  _372
REMARK  157  A    between atoms: _371  and  _374
REMARK  158  A    between atoms: _374  and  _375
REMARK  159  A    between atoms: _381  and  _383
REMARK  160  A    between atoms: _383  and  _384
REMARK  161  A    between atoms: _383  and  _386
REMARK  162  A    between atoms: _386  and  _387
REMARK  163  A    between atoms: _390  and  _392
REMARK  164  A    between atoms: _392  and  _393
REMARK  165  A    between atoms: _392  and  _395
REMARK  166  A    between atoms: _395  and  _396
REMARK  167  A    between atoms: _401  and  _403
REMARK  168  A    between atoms: _403  and  _404
REMARK  169  A    between atoms: _406  and  _408
REMARK  170  A    between atoms: _408  and  _409
REMARK  171  A    between atoms: _411  and  _413
REMARK  172  A    between atoms: _413  and  _414
REMARK  173  A    between atoms: _417  and  _419
REMARK  174  A    between atoms: _419  and  _420
REMARK  175  A    between atoms: _419  and  _422
REMARK  176  A    between atoms: _422  and  _423
REMARK  177  A    between atoms: _426  and  _428
REMARK  178  A    between atoms: _428  and  _429
REMARK  179  A    between atoms: _432  and  _434
REMARK  180  A    between atoms: _434  and  _435
REMARK  181  A    between atoms: _434  and  _437
REMARK  182  A    between atoms: _437  and  _438
REMARK  183  A    between atoms: _443  and  _445
REMARK  184  A    between atoms: _445  and  _446
REMARK  185  A    between atoms: _445  and  _448
REMARK  186  A    between atoms: _448  and  _449
REMARK  187  A    between atoms: _452  and  _454
REMARK  188  A    between atoms: _454  and  _455
REMARK  189  A    between atoms: _454  and  _457
REMARK  190  A    between atoms: _457  and  _458
REMARK  191  A    between atoms: _463  and  _465
REMARK  192  A    between atoms: _465  and  _466
REMARK  193  A    between atoms: _465  and  _468
REMARK  194  A    between atoms: _468  and  _469
REMARK  195  A    between atoms: _474  and  _475
REMARK  196  A    between atoms: _477  and  _479
REMARK  197  A    between atoms: _479  and  _480
REMARK  198  A    between atoms: _479  and  _482
REMARK  199  A    between atoms: _482  and  _483
REMARK  200  A    between atoms: _483  and  _484
REMARK  201  A    between atoms: _484  and  _485
REMARK  202  A    between atoms: _485  and  _486
REMARK  203  A    between atoms: _490  and  _492
REMARK  204  A    between atoms: _492  and  _493
REMARK  205  A    between atoms: _492  and  _495
REMARK  206  A    between atoms: _495  and  _496
REMARK  207  A    between atoms: _496  and  _497
REMARK  208  A    between atoms: _497  and  _498
REMARK  209  A    between atoms: _508  and  _509
REMARK  210  A    between atoms: _514  and  _516
REMARK  211  A    between atoms: _516  and  _517
REMARK  212  A    between atoms: _516  and  _519
REMARK  213  A    between atoms: _519  and  _520
REMARK  214  A    between atoms: _524  and  _525
REMARK  215  A    between atoms: _530  and  _532
REMARK  216  A    between atoms: _532  and  _533
REMARK  217  A    between atoms: _532  and  _535
REMARK  218  A    between atoms: _535  and  _536
REMARK  219  A    between atoms: _539  and  _541
REMARK  220  A    between atoms: _541  and  _542
REMARK  221  A    between atoms: _541  and  _544
REMARK  222  A    between atoms: _544  and  _545
REMARK  223  A    between atoms: _550  and  _551
REMARK  224  A    between atoms: _553  and  _555
REMARK  225  A    between atoms: _555  and  _556
REMARK  226  A    between atoms: _555  and  _558
REMARK  227  A    between atoms: _558  and  _559
REMARK  228  A    between atoms: _561  and  _563
REMARK  229  A    between atoms: _563  and  _564
REMARK  230  A    between atoms: _563  and  _566
REMARK  231  A    between atoms: _566  and  _567
REMARK  232  A    between atoms: _567  and  _568
REMARK                            x       y       z     vdW  Elec       q    Type
REMARK                         _______ _______ _______ _____ _____    ______ ____
ROOT
ATOM      1  CA  LYS A   5      25.200  55.581  35.929  0.00  0.00    +0.149 C 
ENDROOT
BRANCH   1   3
ATOM      2  C   TYR A   4      25.774  57.000  37.804  0.00  0.00    +0.241 C 
ATOM      3  N   LYS A   5      25.108  55.959  37.331  0.00  0.00    -0.297 N 
ATOM      4  H   LYS A   5      24.509  55.401  37.972  0.00  0.00    +0.150 HD
ATOM      5  O   TYR A   4      26.377  57.788  37.070  0.00  0.00    -0.273 OA
BRANCH   2   6
ATOM      6  CA  TYR A   4      25.758  57.183  39.328  0.00  0.00    +0.153 C 
BRANCH   6   9
ATOM      7  C   ASN A   3      27.400  55.692  40.243  0.00  0.00    +0.241 C 
ATOM      8  O   ASN A   3      26.599  54.764  40.317  0.00  0.00    -0.273 OA
ATOM      9  N   TYR A   4      27.086  56.872  39.805  0.00  0.00    -0.297 N 
ATOM     10  H   TYR A   4      27.812  57.617  39.797  0.00  0.00    +0.150 HD
BRANCH   7  11
ATOM     11  CA  ASN A   3      28.845  55.520  40.667  0.00  0.00    +0.158 C 
BRANCH  11  14
ATOM     12  C   ILE A   2      29.242  55.989  43.019  0.00  0.00    +0.241 C 
ATOM     13  O   ILE A   2      29.754  57.089  42.790  0.00  0.00    -0.273 OA
ATOM     14  N   ASN A   3      28.917  55.117  42.064  0.00  0.00    -0.297 N 
ATOM     15  H   ASN A   3      28.711  54.131  42.322  0.00  0.00    +0.150 HD
BRANCH  12  16
ATOM     16  CA  ILE A   2      28.966  55.540  44.448  0.00  0.00    +0.148 C 
BRANCH  16  19
ATOM     17  C   ASN A   1      30.763  54.628  45.764  0.00  0.00    +0.239 C 
ATOM     18  O   ASN A   1      30.491  53.491  45.378  0.00  0.00    -0.274 OA
ATOM     19  N   ILE A   2      30.124  55.690  45.309  0.00  0.00    -0.297 N 
ATOM     20  H   ILE A   2      30.453  56.641  45.570  0.00  0.00    +0.150 HD
BRANCH  17  21
ATOM     21  CA  ASN A   1      31.852  54.888  46.818  0.00  0.00    +0.154 C 
BRANCH  21  22
ATOM     22  N   ASN A   1      31.346  54.594  48.145  0.00  0.00    -0.238 NA
ATOM     23  H   ASN A   1      30.982  53.640  48.342  0.00  0.00    +0.142 HD
ENDBRANCH  21  22
BRANCH  21  24
ATOM     24  CB  ASN A   1      33.115  54.047  46.567  0.00  0.00    +0.111 C 
BRANCH  24  25
ATOM     25  CG  ASN A   1      33.870  54.474  45.317  0.00  0.00    +0.221 C 
ATOM     26  ND2 ASN A   1      35.142  54.119  45.242  0.00  0.00    -0.329 N 
ATOM     27 HD21 ASN A   1      35.576  53.574  46.014  0.00  0.00    +0.145 HD
ATOM     28 HD22 ASN A   1      35.708  54.385  44.411  0.00  0.00    +0.145 HD
ATOM     29  OD1 ASN A   1      33.318  55.112  44.439  0.00  0.00    -0.275 OA
ENDBRANCH  24  25
ENDBRANCH  21  24
ENDBRANCH  17  21
ENDBRANCH  16  19
BRANCH  16  30
ATOM     30  CB  ILE A   2      27.764  56.319  45.002  0.00  0.00    +0.027 C 
ATOM     31  CG2 ILE A   2      26.537  56.095  44.131  0.00  0.00    +0.002 C 
BRANCH  30  32
ATOM     32  CG1 ILE A   2      27.501  55.897  46.448  0.00  0.00    +0.002 C 
ATOM     33  CD1 ILE A   2      26.385  56.641  47.116  0.00  0.00    +0.000 C 
ENDBRANCH  30  32
ENDBRANCH  16  30
ENDBRANCH  12  16
ENDBRANCH  11  14
BRANCH  11  34
ATOM     34  CB  ASN A   3      29.564  54.535  39.747  0.00  0.00    +0.114 C 
BRANCH  34  35
ATOM     35  CG  ASN A   3      31.032  54.445  40.046  0.00  0.00    +0.222 C 
ATOM     36  ND2 ASN A   3      31.469  53.275  40.515  0.00  0.00    -0.329 N 
ATOM     37 HD21 ASN A   3      32.475  53.151  40.747  0.00  0.00    +0.145 HD
ATOM     38 HD22 ASN A   3      30.803  52.487  40.649  0.00  0.00    +0.145 HD
ATOM     39  OD1 ASN A   3      31.778  55.415  39.867  0.00  0.00    -0.275 OA
ENDBRANCH  34  35
ENDBRANCH  11  34
ENDBRANCH   7  11
ENDBRANCH   6   9
BRANCH   6  40
ATOM     40  CB  TYR A   4      25.396  58.642  39.683  0.00  0.00    +0.055 C 
BRANCH  40  41
ATOM     41  CG  TYR A   4      25.365  58.981  41.171  0.00  0.00    -0.020 A 
ATOM     42  CD2 TYR A   4      24.185  58.914  41.898  0.00  0.00    -0.001 A 
ATOM     43  CE2 TYR A   4      24.154  59.238  43.256  0.00  0.00    +0.036 A 
ATOM     44  CZ  TYR A   4      25.313  59.627  43.892  0.00  0.00    +0.134 A 
ATOM     45  CE1 TYR A   4      26.492  59.696  43.188  0.00  0.00    +0.036 A 
ATOM     46  CD1 TYR A   4      26.513  59.378  41.835  0.00  0.00    -0.001 A 
BRANCH  44  47
ATOM     47  OH  TYR A   4      25.309  59.939  45.232  0.00  0.00    -0.506 OA
ATOM     48  HH  TYR A   4      24.391  59.841  45.590  0.00  0.00    +0.292 HD
ENDBRANCH  44  47
ENDBRANCH  40  41
ENDBRANCH   6  40
ENDBRANCH   2   6
ENDBRANCH   1   3
BRANCH   1  49
ATOM     49  C   LYS A   5      24.034  56.117  35.083  0.00  0.00    +0.241 C 
ATOM     50  N   ARG A   6      22.823  56.067  35.630  0.00  0.00    -0.297 N 
ATOM     51  H   ARG A   6      22.709  55.617  36.561  0.00  0.00    +0.150 HD
ATOM     52  O   LYS A   5      24.235  56.574  33.966  0.00  0.00    -0.273 OA
BRANCH  50  53
ATOM     53  CA  ARG A   6      21.650  56.624  34.965  0.00  0.00    +0.149 C 
BRANCH  53  54
ATOM     54  C   ARG A   6      20.785  57.357  35.991  0.00  0.00    +0.244 C 
ATOM     55  O   ARG A   6      20.675  56.939  37.134  0.00  0.00    -0.273 OA
ATOM     56  N   PRO A   7      20.182  58.476  35.580  0.00  0.00    -0.272 N 
ATOM     57  CA  PRO A   7      19.451  59.272  36.567  0.00  0.00    +0.152 C 
ATOM     58  CB  PRO A   7      19.176  60.576  35.815  0.00  0.00    +0.031 C 
ATOM     59  CG  PRO A   7      19.246  60.169  34.321  0.00  0.00    +0.024 C 
ATOM     60  CD  PRO A   7      20.340  59.176  34.286  0.00  0.00    +0.094 C 
BRANCH  57  61
ATOM     61  C   PRO A   7      18.155  58.590  36.971  0.00  0.00    +0.241 C 
ATOM     62  N   ILE A   8      17.752  58.752  38.222  0.00  0.00    -0.297 N 
ATOM     63  H   ILE A   8      18.310  59.336  38.877  0.00  0.00    +0.150 HD
ATOM     64  O   PRO A   7      17.530  57.919  36.160  0.00  0.00    -0.273 OA
BRANCH  62  65
ATOM     65  CA  ILE A   8      16.534  58.116  38.677  0.00  0.00    +0.149 C 
BRANCH  65  66
ATOM     66  C   ILE A   8      15.377  59.098  38.740  0.00  0.00    +0.244 C 
ATOM     67  O   ILE A   8      15.421  60.097  39.475  0.00  0.00    -0.273 OA
ATOM     68  N   PRO A   9      14.332  58.822  37.958  0.00  0.00    -0.273 N 
ATOM     69  CA  PRO A   9      13.170  59.709  37.908  0.00  0.00    +0.140 C 
ATOM     70  CB  PRO A   9      12.356  59.147  36.729  0.00  0.00    +0.030 C 
ATOM     71  CG  PRO A   9      12.842  57.763  36.571  0.00  0.00    +0.024 C 
ATOM     72  CD  PRO A   9      14.296  57.823  36.881  0.00  0.00    +0.094 C 
BRANCH  69  73
ATOM     73  C   PRO A   9      12.367  59.706  39.209  0.00  0.00    +0.227 C 
ATOM     74  O   PRO A   9      12.214  58.676  39.874  0.00  0.00    -0.286 OA
ENDBRANCH  69  73
ENDBRANCH  65  66
BRANCH  65  75
ATOM     75  CB  ILE A   8      16.720  57.424  40.036  0.00  0.00    +0.027 C 
ATOM     76  CG2 ILE A   8      15.534  56.531  40.335  0.00  0.00    +0.002 C 
BRANCH  75  77
ATOM     77  CG1 ILE A   8      17.992  56.593  40.022  0.00  0.00    +0.002 C 
ATOM     78  CD1 ILE A   8      18.209  55.834  41.289  0.00  0.00    +0.000 C 
ENDBRANCH  75  77
ENDBRANCH  65  75
ENDBRANCH  62  65
ENDBRANCH  57  61
ENDBRANCH  53  54
BRANCH  53  79
ATOM     79  CB  ARG A   6      20.842  55.535  34.248  0.00  0.00    +0.033 C 
BRANCH  79  80
ATOM     80  CG  ARG A   6      21.597  54.818  33.128  0.00  0.00    +0.045 C 
BRANCH  80  81
ATOM     81  CD  ARG A   6      20.959  53.488  32.855  0.00  0.00    +0.174 C 
BRANCH  81  82
ATOM     82  NE  ARG A   6      21.581  52.769  31.741  0.00  0.00    -0.265 N 
ATOM     83  CZ  ARG A   6      22.655  51.993  31.856  0.00  0.00    +0.342 C 
ATOM     84  NH2 ARG A   6      23.243  51.835  33.038  0.00  0.00    -0.292 N 
ATOM     85 HH21 ARG A   6      22.863  52.319  33.877  0.00  0.00    +0.255 HD
ATOM     86 HH22 ARG A   6      24.083  51.227  33.124  0.00  0.00    +0.255 HD
ATOM     87  NH1 ARG A   6      23.144  51.376  30.786  0.00  0.00    -0.292 N 
ATOM     88 HH11 ARG A   6      23.984  50.769  30.874  0.00  0.00    +0.255 HD
ATOM     89 HH12 ARG A   6      22.687  51.500  29.860  0.00  0.00    +0.255 HD
ATOM     90  HE  ARG A   6      21.155  52.872  30.798  0.00  0.00    +0.259 HD
ENDBRANCH  81  82
ENDBRANCH  80  81
ENDBRANCH  79  80
ENDBRANCH  53  79
ENDBRANCH  50  53
ENDBRANCH   1  49
BRANCH   1  91
ATOM     91  CB  LYS A   5      25.340  54.058  35.815  0.00  0.00    +0.029 C 
BRANCH  91  92
ATOM     92  CG  LYS A   5      26.704  53.541  36.313  0.00  0.00    +0.000 C 
BRANCH  92  93
ATOM     93  CD  LYS A   5      26.792  52.008  36.254  0.00  0.00    -0.024 C 
BRANCH  93  94
ATOM     94  CE  LYS A   5      28.250  51.506  36.290  0.00  0.00    -0.086 C 
BRANCH  94  95
ATOM     95  NZ  LYS A   5      29.246  52.504  35.752  0.00  0.00    +0.380 N 
ATOM     96  HZ1 LYS A   5      29.203  53.375  36.319  0.00  0.00    -0.089 HD
ATOM     97  HZ2 LYS A   5      30.203  52.101  35.807  0.00  0.00    -0.089 HD
ATOM     98  HZ3 LYS A   5      29.016  52.722  34.761  0.00  0.00    -0.089 HD
ENDBRANCH  94  95
ENDBRANCH  93  94
ENDBRANCH  92  93
ENDBRANCH  91  92
ENDBRANCH   1  91
TORSDOF 36
REMARK  Name = ../refined-set-2016/4gah/4gah_pocket.pdb
REMARK  232 active torsions:
REMARK  status: ('A' for Active; 'I' for Inactive)
REMARK    1  A    between atoms: _1  and  _3
REMARK    2  A    between atoms: _3  and  _4
REMARK    3  A    between atoms: _3  and  _6
REMARK    4  A    between atoms: _6  and  _7
REMARK    5  A    between atoms: _7  and  _8
REMARK    6  A    between atoms: _8  and  _9
REMARK    7  A    between atoms: _18  and  _20
REMARK    8  A    between atoms: _20  and  _21
REMARK    9  A    between atoms: _20  and  _23
REMARK   10  A    between atoms: _23  and  _24
REMARK   11  A    between atoms: _27  and  _29
REMARK   12  A    between atoms: _29  and  _30
REMARK   13  A    between atoms: _29  and  _32
REMARK   14  A    between atoms: _32  and  _33
REMARK   15  A    between atoms: _39  and  _41
REMARK   16  A    between atoms: _41  and  _42
REMARK   17  A    between atoms: _41  and  _44
REMARK   18  A    between atoms: _44  and  _45
REMARK   19  A    between atoms: _48  and  _50
REMARK   20  A    between atoms: _50  and  _51
REMARK   21  A    between atoms: _50  and  _53
REMARK   22  A    between atoms: _53  and  _54
REMARK   23  A    between atoms: _57  and  _59
REMARK   24  A    between atoms: _59  and  _60
REMARK   25  A    between atoms: _59  and  _62
REMARK   26  A    between atoms: _62  and  _63
REMARK   27  A    between atoms: _66  and  _68
REMARK   28  A    between atoms: _68  and  _69
REMARK   29  A    between atoms: _72  and  _74
REMARK   30  A    between atoms: _74  and  _75
REMARK   31  A    between atoms: _74  and  _77
REMARK   32  A    between atoms: _77  and  _78
REMARK   33  A    between atoms: _81  and  _83
REMARK   34  A    between atoms: _83  and  _84
REMARK   35  A    between atoms: _83  and  _86
REMARK   36  A    between atoms: _89  and  _91
REMARK   37  A    between atoms: _91  and  _92
REMARK   38  A    between atoms: _94  and  _96
REMARK   39  A    between atoms: _96  and  _97
REMARK   40  A    between atoms: _96  and  _99
REMARK   41  A    between atoms: _99  and  _100
REMARK   42  A    between atoms: _100  and  _101
REMARK   43  A    between atoms: _103  and  _105
REMARK   44  A    between atoms: _105  and  _106
REMARK   45  A    between atoms: _105  and  _108
REMARK   46  A    between atoms: _108  and  _109
REMARK   47  A    between atoms: _109  and  _110
REMARK   48  A    between atoms: _112  and  _114
REMARK   49  A    between atoms: _114  and  _115
REMARK   50  A    between atoms: _117  and  _119
REMARK   51  A    between atoms: _119  and  _120
REMARK   52  A    between atoms: _119  and  _122
REMARK   53  A    between atoms: _122  and  _123
REMARK   54  A    between atoms: _126  and  _128
REMARK   55  A    between atoms: _128  and  _129
REMARK   56  A    between atoms: _128  and  _131
REMARK   57  A    between atoms: _134  and  _136
REMARK   58  A    between atoms: _136  and  _137
REMARK   59  A    between atoms: _136  and  _139
REMARK   60  A    between atoms: _139  and  _140
REMARK   61  A    between atoms: _140  and  _141
REMARK   62  A    between atoms: _143  and  _145
REMARK   63  A    between atoms: _145  and  _146
REMARK   64  A    between atoms: _145  and  _148
REMARK   65  A    between atoms: _148  and  _149
REMARK   66  A    between atoms: _152  and  _154
REMARK   67  A    between atoms: _154  and  _155
REMARK   68  A    between atoms: _158  and  _160
REMARK   69  A    between atoms: _160  and  _161
REMARK   70  A    between atoms: _160  and  _163
REMARK   71  A    between atoms: _163  and  _164
REMARK   72  A    between atoms: _169  and  _171
REMARK   73  A    between atoms: _171  and  _172
REMARK   74  A    between atoms: _171  and  _174
REMARK   75  A    between atoms: _174  and  _175
REMARK   76  A    between atoms: _178  and  _180
REMARK   77  A    between atoms: _180  and  _181
REMARK   78  A    between atoms: _180  and  _183
REMARK   79  A    between atoms: _183  and  _184
REMARK   80  A    between atoms: _184  and  _185
REMARK   81  A    between atoms: _188  and  _190
REMARK   82  A    between atoms: _190  and  _191
REMARK   83  A    between atoms: _193  and  _195
REMARK   84  A    between atoms: _195  and  _196
REMARK   85  A    between atoms: _195  and  _198
REMARK   86  A    between atoms: _198  and  _199
REMARK   87  A    between atoms: _199  and  _200
REMARK   88  A    between atoms: _200  and  _201
REMARK   89  A    between atoms: _210  and  _212
REMARK   90  A    between atoms: _212  and  _213
REMARK   91  A    between atoms: _212  and  _215
REMARK   92  A    between atoms: _215  and  _216
REMARK   93  A    between atoms: _216  and  _217
REMARK   94  A    between atoms: _217  and  _218
REMARK   95  A    between atoms: _218  and  _219
REMARK   96  A    between atoms: _223  and  _225
REMARK   97  A    between atoms: _225  and  _226
REMARK   98  A    between atoms: _225  and  _228
REMARK   99  A    between atoms: _228  and  _229
REMARK  100  A    between atoms: _235  and  _237
REMARK  101  A    between atoms: _237  and  _238
REMARK  102  A    between atoms: _237  and  _240
REMARK  103  A    between atoms: _240  and  _241
REMARK  104  A    between atoms: _247  and  _249
REMARK  105  A    between atoms: _249  and  _250
REMARK  106  A    between atoms: _249  and  _252
REMARK  107  A    between atoms: _252  and  _253
REMARK  108  A    between atoms: _256  and  _258
REMARK  109  A    between atoms: _258  and  _259
REMARK  110  A    between atoms: _258  and  _261
REMARK  111  A    between atoms: _261  and  _262
REMARK  112  A    between atoms: _268  and  _270
REMARK  113  A    between atoms: _270  and  _271
REMARK  114  A    between atoms: _270  and  _273
REMARK  115  A    between atoms: _273  and  _274
REMARK  116  A    between atoms: _277  and  _279
REMARK  117  A    between atoms: _279  and  _280
REMARK  118  A    between atoms: _279  and  _282
REMARK  119  A    between atoms: _282  and  _283
REMARK  120  A    between atoms: _283  and  _284
REMARK  121  A    between atoms: _284  and  _285
REMARK  122  A    between atoms: _285  and  _286
REMARK  123  A    between atoms: _290  and  _292
REMARK  124  A    between atoms: _292  and  _293
REMARK  125  A    between atoms: _292  and  _295
REMARK  126  A    between atoms: _295  and  _296
REMARK  127  A    between atoms: _299  and  _301
REMARK  128  A    between atoms: _301  and  _302
REMARK  129  A    between atoms: _301  and  _304
REMARK  130  A    between atoms: _304  and  _305
REMARK  131  A    between atoms: _310  and  _312
REMARK  132  A    between atoms: _312  and  _313
REMARK  133  A    between atoms: _312  and  _315
REMARK  134  A    between atoms: _315  and  _316
REMARK  135  A    between atoms: _316  and  _317
REMARK  136  A    between atoms: _317  and  _318
REMARK  137  A    between atoms: _318  and  _319
REMARK  138  A    between atoms: _323  and  _325
REMARK  139  A    between atoms: _325  and  _326
REMARK  140  A    between atoms: _325  and  _328
REMARK  141  A    between atoms: _328  and  _329
REMARK  142  A    between atoms: _331  and  _333
REMARK  143  A    between atoms: _333  and  _334
REMARK  144  A    between atoms: _333  and  _336
REMARK  145  A    between atoms: _336  and  _337
REMARK  146  A    between atoms: _340  and  _342
REMARK  147  A    between atoms: _342  and  _343
REMARK  148  A    between atoms: _342  and  _345
REMARK  149  A    between atoms: _345  and  _346
REMARK  150  A    between atoms: _346  and  _347
REMARK  151  A    between atoms: _350  and  _352
REMARK  152  A    between atoms: _352  and  _353
REMARK  153  A    between atoms: _356  and  _357
REMARK  154  A    between atoms: _363  and  _364
REMARK  155  A    between atoms: _369  and  _371
REMARK  156  A    between atoms: _371  and  _372
REMARK  157  A    between atoms: _371  and  _374
REMARK  158  A    between atoms: _374  and  _375
REMARK  159  A    between atoms: _381  and  _383
REMARK  160  A    between atoms: _383  and  _384
REMARK  161  A    between atoms: _383  and  _386
REMARK  162  A    between atoms: _386  and  _387
REMARK  163  A    between atoms: _390  and  _392
REMARK  164  A    between atoms: _392  and  _393
REMARK  165  A    between atoms: _392  and  _395
REMARK  166  A    between atoms: _395  and  _396
REMARK  167  A    between atoms: _401  and  _403
REMARK  168  A    between atoms: _403  and  _404
REMARK  169  A    between atoms: _406  and  _408
REMARK  170  A    between atoms: _408  and  _409
REMARK  171  A    between atoms: _411  and  _413
REMARK  172  A    between atoms: _413  and  _414
REMARK  173  A    between atoms: _417  and  _419
REMARK  174  A    between atoms: _419  and  _420
REMARK  175  A    between atoms: _419  and  _422
REMARK  176  A    between atoms: _422  and  _423
REMARK  177  A    between atoms: _426  and  _428
REMARK  178  A    between atoms: _428  and  _429
REMARK  179  A    between atoms: _432  and  _434
REMARK  180  A    between atoms: _434  and  _435
REMARK  181  A    between atoms: _434  and  _437
REMARK  182  A    between atoms: _437  and  _438
REMARK  183  A    between atoms: _443  and  _445
REMARK  184  A    between atoms: _445  and  _446
REMARK  185  A    between atoms: _445  and  _448
REMARK  186  A    between atoms: _448  and  _449
REMARK  187  A    between atoms: _452  and  _454
REMARK  188  A    between atoms: _454  and  _455
REMARK  189  A    between atoms: _454  and  _457
REMARK  190  A    between atoms: _457  and  _458
REMARK  191  A    between atoms: _463  and  _465
REMARK  192  A    between atoms: _465  and  _466
REMARK  193  A    between atoms: _465  and  _468
REMARK  194  A    between atoms: _468  and  _469
REMARK  195  A    between atoms: _474  and  _475
REMARK  196  A    between atoms: _477  and  _479
REMARK  197  A    between atoms: _479  and  _480
REMARK  198  A    between atoms: _479  and  _482
REMARK  199  A    between atoms: _482  and  _483
REMARK  200  A    between atoms: _483  and  _484
REMARK  201  A    between atoms: _484  and  _485
REMARK  202  A    between atoms: _485  and  _486
REMARK  203  A    between atoms: _490  and  _492
REMARK  204  A    between atoms: _492  and  _493
REMARK  205  A    between atoms: _492  and  _495
REMARK  206  A    between atoms: _495  and  _496
REMARK  207  A    between atoms: _496  and  _497
REMARK  208  A    between atoms: _497  and  _498
REMARK  209  A    between atoms: _508  and  _509
REMARK  210  A    between atoms: _514  and  _516
REMARK  211  A    between atoms: _516  and  _517
REMARK  212  A    between atoms: _516  and  _519
REMARK  213  A    between atoms: _519  and  _520
REMARK  214  A    between atoms: _524  and  _525
REMARK  215  A    between atoms: _530  and  _532
REMARK  216  A    between atoms: _532  and  _533
REMARK  217  A    between atoms: _532  and  _535
REMARK  218  A    between atoms: _535  and  _536
REMARK  219  A    between atoms: _539  and  _541
REMARK  220  A    between atoms: _541  and  _542
REMARK  221  A    between atoms: _541  and  _544
REMARK  222  A    between atoms: _544  and  _545
REMARK  223  A    between atoms: _550  and  _551
REMARK  224  A    between atoms: _553  and  _555
REMARK  225  A    between atoms: _555  and  _556
REMARK  226  A    between atoms: _555  and  _558
REMARK  227  A    between atoms: _558  and  _559
REMARK  228  A    between atoms: _561  and  _563
REMARK  229  A    between atoms: _563  and  _564
REMARK  230  A    between atoms: _563  and  _566
REMARK  231  A    between atoms: _566  and  _567
REMARK  232  A    between atoms: _567  and  _568
REMARK                            x       y       z     vdW  Elec       q    Type
REMARK                         _______ _______ _______ _____ _____    ______ ____
ROOT
ATOM      1  CA  TYR A   2      20.856  53.279  37.799  0.00  0.00    +0.153 C 
ENDROOT
BRANCH   1   3
ATOM      2  C   LEU A   1      21.315  51.356  36.412  0.00  0.00    +0.238 C 
ATOM      3  N   TYR A   2      20.713  51.862  37.476  0.00  0.00    -0.297 N 
ATOM      4  H   TYR A   2      20.135  51.248  38.085  0.00  0.00    +0.150 HD
ATOM      5  O   LEU A   1      22.003  52.057  35.680  0.00  0.00    -0.274 OA
BRANCH   2   6
ATOM      6  CA  LEU A   1      21.101  49.843  36.117  0.00  0.00    +0.145 C 
BRANCH   6   7
ATOM      7  N   LEU A   1      20.222  49.653  34.973  0.00  0.00    -0.238 NA
ATOM      8  H   LEU A   1      20.643  49.588  34.024  0.00  0.00    +0.142 HD
ENDBRANCH   6   7
BRANCH   6   9
ATOM      9  CB  LEU A   1      22.434  49.145  35.869  0.00  0.00    +0.026 C 
BRANCH   9  10
ATOM     10  CG  LEU A   1      23.484  49.253  36.978  0.00  0.00    +0.002 C 
ATOM     11  CD2 LEU A   1      23.042  48.535  38.270  0.00  0.00    +0.000 C 
ATOM     12  CD1 LEU A   1      24.831  48.723  36.513  0.00  0.00    +0.000 C 
ENDBRANCH   9  10
ENDBRANCH   6   9
ENDBRANCH   2   6
ENDBRANCH   1   3
BRANCH   1  13
ATOM     13  C   TYR A   2      22.184  53.624  38.453  0.00  0.00    +0.241 C 
ATOM     14  N   SER A   3      22.616  52.806  39.417  0.00  0.00    -0.295 N 
ATOM     15  H   SER A   3      22.071  51.945  39.626  0.00  0.00    +0.150 HD
ATOM     16  O   TYR A   2      22.792  54.620  38.101  0.00  0.00    -0.273 OA
BRANCH  14  17
ATOM     17  CA  SER A   3      23.826  53.077  40.188  0.00  0.00    +0.178 C 
BRANCH  17  18
ATOM     18  C   SER A   3      24.447  51.792  40.671  0.00  0.00    +0.243 C 
ATOM     19  N   GLU A   4      25.726  51.861  40.995  0.00  0.00    -0.298 N 
ATOM     20  H   GLU A   4      26.270  52.712  40.749  0.00  0.00    +0.150 HD
ATOM     21  O   SER A   3      23.786  50.767  40.775  0.00  0.00    -0.273 OA
BRANCH  19  22
ATOM     22  CA  GLU A   4      26.381  50.774  41.685  0.00  0.00    +0.137 C 
BRANCH  22  23
ATOM     23  C   GLU A   4      27.306  51.404  42.697  0.00  0.00    +0.227 C 
ATOM     24  O   GLU A   4      27.810  52.495  42.476  0.00  0.00    -0.286 OA
ENDBRANCH  22  23
BRANCH  22  25
ATOM     25  CB  GLU A   4      27.161  49.893  40.722  0.00  0.00    +0.039 C 
BRANCH  25  26
ATOM     26  CG  GLU A   4      27.968  50.674  39.726  0.00  0.00    +0.116 C 
BRANCH  26  27
ATOM     27  CD  GLU A   4      29.376  50.124  39.547  0.00  0.00    +0.365 C 
ATOM     28  OE2 GLU A   4      29.903  49.509  40.505  0.00  0.00    -0.246 OA
ATOM     29  OE1 GLU A   4      29.958  50.322  38.458  0.00  0.00    -0.246 OA
ENDBRANCH  26  27
ENDBRANCH  25  26
ENDBRANCH  22  25
ENDBRANCH  19  22
ENDBRANCH  17  18
BRANCH  17  30
ATOM     30  CB  SER A   3      23.531  53.943  41.434  0.00  0.00    +0.166 C 
BRANCH  30  31
ATOM     31  OG  SER A   3      22.581  54.972  41.196  0.00  0.00    -0.380 OA
ATOM     32  H   SER A   3      22.920  55.575  40.488  0.00  0.00    +0.211 HD
ENDBRANCH  30  31
ENDBRANCH  17  30
ENDBRANCH  14  17
ENDBRANCH   1  13
BRANCH   1  33
ATOM     33  CB  TYR A   2      19.730  53.714  38.710  0.00  0.00    +0.055 C 
BRANCH  33  34
ATOM     34  CG  TYR A   2      18.396  53.655  38.051  0.00  0.00    -0.020 A 
ATOM     35  CD2 TYR A   2      17.510  52.616  38.309  0.00  0.00    -0.001 A 
ATOM     36  CE2 TYR A   2      16.265  52.582  37.692  0.00  0.00    +0.036 A 
ATOM     37  CZ  TYR A   2      15.928  53.586  36.806  0.00  0.00    +0.134 A 
ATOM     38  CE1 TYR A   2      16.797  54.603  36.552  0.00  0.00    +0.036 A 
ATOM     39  CD1 TYR A   2      18.016  54.636  37.170  0.00  0.00    -0.001 A 
BRANCH  37  40
ATOM     40  OH  TYR A   2      14.716  53.594  36.164  0.00  0.00    -0.506 OA
ATOM     41  HH  TYR A   2      14.862  53.568  35.185  0.00  0.00    +0.292 HD
ENDBRANCH  37  40
ENDBRANCH  33  34
ENDBRANCH   1  33
TORSDOF 18
REMARK  Name = ../refined-set-2016/4gah/4gah_pocket.pdb
REMARK  232 active torsions:
REMARK  status: ('A' for Active; 'I' for Inactive)
REMARK    1  A    between atoms: _1  and  _3
REMARK    2  A    between atoms: _3  and  _4
REMARK    3  A    between atoms: _3  and  _6
REMARK    4  A    between atoms: _6  and  _7
REMARK    5  A    between atoms: _7  and  _8
REMARK    6  A    between atoms: _8  and  _9
REMARK    7  A    between atoms: _18  and  _20
REMARK    8  A    between atoms: _20  and  _21
REMARK    9  A    between atoms: _20  and  _23
REMARK   10  A    between atoms: _23  and  _24
REMARK   11  A    between atoms: _27  and  _29
REMARK   12  A    between atoms: _29  and  _30
REMARK   13  A    between atoms: _29  and  _32
REMARK   14  A    between atoms: _32  and  _33
REMARK   15  A    between atoms: _39  and  _41
REMARK   16  A    between atoms: _41  and  _42
REMARK   17  A    between atoms: _41  and  _44
REMARK   18  A    between atoms: _44  and  _45
REMARK   19  A    between atoms: _48  and  _50
REMARK   20  A    between atoms: _50  and  _51
REMARK   21  A    between atoms: _50  and  _53
REMARK   22  A    between atoms: _53  and  _54
REMARK   23  A    between atoms: _57  and  _59
REMARK   24  A    between atoms: _59  and  _60
REMARK   25  A    between atoms: _59  and  _62
REMARK   26  A    between atoms: _62  and  _63
REMARK   27  A    between atoms: _66  and  _68
REMARK   28  A    between atoms: _68  and  _69
REMARK   29  A    between atoms: _72  and  _74
REMARK   30  A    between atoms: _74  and  _75
REMARK   31  A    between atoms: _74  and  _77
REMARK   32  A    between atoms: _77  and  _78
REMARK   33  A    between atoms: _81  and  _83
REMARK   34  A    between atoms: _83  and  _84
REMARK   35  A    between atoms: _83  and  _86
REMARK   36  A    between atoms: _89  and  _91
REMARK   37  A    between atoms: _91  and  _92
REMARK   38  A    between atoms: _94  and  _96
REMARK   39  A    between atoms: _96  and  _97
REMARK   40  A    between atoms: _96  and  _99
REMARK   41  A    between atoms: _99  and  _100
REMARK   42  A    between atoms: _100  and  _101
REMARK   43  A    between atoms: _103  and  _105
REMARK   44  A    between atoms: _105  and  _106
REMARK   45  A    between atoms: _105  and  _108
REMARK   46  A    between atoms: _108  and  _109
REMARK   47  A    between atoms: _109  and  _110
REMARK   48  A    between atoms: _112  and  _114
REMARK   49  A    between atoms: _114  and  _115
REMARK   50  A    between atoms: _117  and  _119
REMARK   51  A    between atoms: _119  and  _120
REMARK   52  A    between atoms: _119  and  _122
REMARK   53  A    between atoms: _122  and  _123
REMARK   54  A    between atoms: _126  and  _128
REMARK   55  A    between atoms: _128  and  _129
REMARK   56  A    between atoms: _128  and  _131
REMARK   57  A    between atoms: _134  and  _136
REMARK   58  A    between atoms: _136  and  _137
REMARK   59  A    between atoms: _136  and  _139
REMARK   60  A    between atoms: _139  and  _140
REMARK   61  A    between atoms: _140  and  _141
REMARK   62  A    between atoms: _143  and  _145
REMARK   63  A    between atoms: _145  and  _146
REMARK   64  A    between atoms: _145  and  _148
REMARK   65  A    between atoms: _148  and  _149
REMARK   66  A    between atoms: _152  and  _154
REMARK   67  A    between atoms: _154  and  _155
REMARK   68  A    between atoms: _158  and  _160
REMARK   69  A    between atoms: _160  and  _161
REMARK   70  A    between atoms: _160  and  _163
REMARK   71  A    between atoms: _163  and  _164
REMARK   72  A    between atoms: _169  and  _171
REMARK   73  A    between atoms: _171  and  _172
REMARK   74  A    between atoms: _171  and  _174
REMARK   75  A    between atoms: _174  and  _175
REMARK   76  A    between atoms: _178  and  _180
REMARK   77  A    between atoms: _180  and  _181
REMARK   78  A    between atoms: _180  and  _183
REMARK   79  A    between atoms: _183  and  _184
REMARK   80  A    between atoms: _184  and  _185
REMARK   81  A    between atoms: _188  and  _190
REMARK   82  A    between atoms: _190  and  _191
REMARK   83  A    between atoms: _193  and  _195
REMARK   84  A    between atoms: _195  and  _196
REMARK   85  A    between atoms: _195  and  _198
REMARK   86  A    between atoms: _198  and  _199
REMARK   87  A    between atoms: _199  and  _200
REMARK   88  A    between atoms: _200  and  _201
REMARK   89  A    between atoms: _210  and  _212
REMARK   90  A    between atoms: _212  and  _213
REMARK   91  A    between atoms: _212  and  _215
REMARK   92  A    between atoms: _215  and  _216
REMARK   93  A    between atoms: _216  and  _217
REMARK   94  A    between atoms: _217  and  _218
REMARK   95  A    between atoms: _218  and  _219
REMARK   96  A    between atoms: _223  and  _225
REMARK   97  A    between atoms: _225  and  _226
REMARK   98  A    between atoms: _225  and  _228
REMARK   99  A    between atoms: _228  and  _229
REMARK  100  A    between atoms: _235  and  _237
REMARK  101  A    between atoms: _237  and  _238
REMARK  102  A    between atoms: _237  and  _240
REMARK  103  A    between atoms: _240  and  _241
REMARK  104  A    between atoms: _247  and  _249
REMARK  105  A    between atoms: _249  and  _250
REMARK  106  A    between atoms: _249  and  _252
REMARK  107  A    between atoms: _252  and  _253
REMARK  108  A    between atoms: _256  and  _258
REMARK  109  A    between atoms: _258  and  _259
REMARK  110  A    between atoms: _258  and  _261
REMARK  111  A    between atoms: _261  and  _262
REMARK  112  A    between atoms: _268  and  _270
REMARK  113  A    between atoms: _270  and  _271
REMARK  114  A    between atoms: _270  and  _273
REMARK  115  A    between atoms: _273  and  _274
REMARK  116  A    between atoms: _277  and  _279
REMARK  117  A    between atoms: _279  and  _280
REMARK  118  A    between atoms: _279  and  _282
REMARK  119  A    between atoms: _282  and  _283
REMARK  120  A    between atoms: _283  and  _284
REMARK  121  A    between atoms: _284  and  _285
REMARK  122  A    between atoms: _285  and  _286
REMARK  123  A    between atoms: _290  and  _292
REMARK  124  A    between atoms: _292  and  _293
REMARK  125  A    between atoms: _292  and  _295
REMARK  126  A    between atoms: _295  and  _296
REMARK  127  A    between atoms: _299  and  _301
REMARK  128  A    between atoms: _301  and  _302
REMARK  129  A    between atoms: _301  and  _304
REMARK  130  A    between atoms: _304  and  _305
REMARK  131  A    between atoms: _310  and  _312
REMARK  132  A    between atoms: _312  and  _313
REMARK  133  A    between atoms: _312  and  _315
REMARK  134  A    between atoms: _315  and  _316
REMARK  135  A    between atoms: _316  and  _317
REMARK  136  A    between atoms: _317  and  _318
REMARK  137  A    between atoms: _318  and  _319
REMARK  138  A    between atoms: _323  and  _325
REMARK  139  A    between atoms: _325  and  _326
REMARK  140  A    between atoms: _325  and  _328
REMARK  141  A    between atoms: _328  and  _329
REMARK  142  A    between atoms: _331  and  _333
REMARK  143  A    between atoms: _333  and  _334
REMARK  144  A    between atoms: _333  and  _336
REMARK  145  A    between atoms: _336  and  _337
REMARK  146  A    between atoms: _340  and  _342
REMARK  147  A    between atoms: _342  and  _343
REMARK  148  A    between atoms: _342  and  _345
REMARK  149  A    between atoms: _345  and  _346
REMARK  150  A    between atoms: _346  and  _347
REMARK  151  A    between atoms: _350  and  _352
REMARK  152  A    between atoms: _352  and  _353
REMARK  153  A    between atoms: _356  and  _357
REMARK  154  A    between atoms: _363  and  _364
REMARK  155  A    between atoms: _369  and  _371
REMARK  156  A    between atoms: _371  and  _372
REMARK  157  A    between atoms: _371  and  _374
REMARK  158  A    between atoms: _374  and  _375
REMARK  159  A    between atoms: _381  and  _383
REMARK  160  A    between atoms: _383  and  _384
REMARK  161  A    between atoms: _383  and  _386
REMARK  162  A    between atoms: _386  and  _387
REMARK  163  A    between atoms: _390  and  _392
REMARK  164  A    between atoms: _392  and  _393
REMARK  165  A    between atoms: _392  and  _395
REMARK  166  A    between atoms: _395  and  _396
REMARK  167  A    between atoms: _401  and  _403
REMARK  168  A    between atoms: _403  and  _404
REMARK  169  A    between atoms: _406  and  _408
REMARK  170  A    between atoms: _408  and  _409
REMARK  171  A    between atoms: _411  and  _413
REMARK  172  A    between atoms: _413  and  _414
REMARK  173  A    between atoms: _417  and  _419
REMARK  174  A    between atoms: _419  and  _420
REMARK  175  A    between atoms: _419  and  _422
REMARK  176  A    between atoms: _422  and  _423
REMARK  177  A    between atoms: _426  and  _428
REMARK  178  A    between atoms: _428  and  _429
REMARK  179  A    between atoms: _432  and  _434
REMARK  180  A    between atoms: _434  and  _435
REMARK  181  A    between atoms: _434  and  _437
REMARK  182  A    between atoms: _437  and  _438
REMARK  183  A    between atoms: _443  and  _445
REMARK  184  A    between atoms: _445  and  _446
REMARK  185  A    between atoms: _445  and  _448
REMARK  186  A    between atoms: _448  and  _449
REMARK  187  A    between atoms: _452  and  _454
REMARK  188  A    between atoms: _454  and  _455
REMARK  189  A    between atoms: _454  and  _457
REMARK  190  A    between atoms: _457  and  _458
REMARK  191  A    between atoms: _463  and  _465
REMARK  192  A    between atoms: _465  and  _466
REMARK  193  A    between atoms: _465  and  _468
REMARK  194  A    between atoms: _468  and  _469
REMARK  195  A    between atoms: _474  and  _475
REMARK  196  A    between atoms: _477  and  _479
REMARK  197  A    between atoms: _479  and  _480
REMARK  198  A    between atoms: _479  and  _482
REMARK  199  A    between atoms: _482  and  _483
REMARK  200  A    between atoms: _483  and  _484
REMARK  201  A    between atoms: _484  and  _485
REMARK  202  A    between atoms: _485  and  _486
REMARK  203  A    between atoms: _490  and  _492
REMARK  204  A    between atoms: _492  and  _493
REMARK  205  A    between atoms: _492  and  _495
REMARK  206  A    between atoms: _495  and  _496
REMARK  207  A    between atoms: _496  and  _497
REMARK  208  A    between atoms: _497  and  _498
REMARK  209  A    between atoms: _508  and  _509
REMARK  210  A    between atoms: _514  and  _516
REMARK  211  A    between atoms: _516  and  _517
REMARK  212  A    between atoms: _516  and  _519
REMARK  213  A    between atoms: _519  and  _520
REMARK  214  A    between atoms: _524  and  _525
REMARK  215  A    between atoms: _530  and  _532
REMARK  216  A    between atoms: _532  and  _533
REMARK  217  A    between atoms: _532  and  _535
REMARK  218  A    between atoms: _535  and  _536
REMARK  219  A    between atoms: _539  and  _541
REMARK  220  A    between atoms: _541  and  _542
REMARK  221  A    between atoms: _541  and  _544
REMARK  222  A    between atoms: _544  and  _545
REMARK  223  A    between atoms: _550  and  _551
REMARK  224  A    between atoms: _553  and  _555
REMARK  225  A    between atoms: _555  and  _556
REMARK  226  A    between atoms: _555  and  _558
REMARK  227  A    between atoms: _558  and  _559
REMARK  228  A    between atoms: _561  and  _563
REMARK  229  A    between atoms: _563  and  _564
REMARK  230  A    between atoms: _563  and  _566
REMARK  231  A    between atoms: _566  and  _567
REMARK  232  A    between atoms: _567  and  _568
REMARK                            x       y       z     vdW  Elec       q    Type
REMARK                         _______ _______ _______ _____ _____    ______ ____
ROOT
ATOM      1  O   HOH     1      28.789  57.073  35.915  0.00  0.00    +0.000 OA
ENDROOT
TORSDOF 0
REMARK  Name = ../refined-set-2016/4gah/4gah_pocket.pdb
REMARK  232 active torsions:
REMARK  status: ('A' for Active; 'I' for Inactive)
REMARK    1  A    between atoms: _1  and  _3
REMARK    2  A    between atoms: _3  and  _4
REMARK    3  A    between atoms: _3  and  _6
REMARK    4  A    between atoms: _6  and  _7
REMARK    5  A    between atoms: _7  and  _8
REMARK    6  A    between atoms: _8  and  _9
REMARK    7  A    between atoms: _18  and  _20
REMARK    8  A    between atoms: _20  and  _21
REMARK    9  A    between atoms: _20  and  _23
REMARK   10  A    between atoms: _23  and  _24
REMARK   11  A    between atoms: _27  and  _29
REMARK   12  A    between atoms: _29  and  _30
REMARK   13  A    between atoms: _29  and  _32
REMARK   14  A    between atoms: _32  and  _33
REMARK   15  A    between atoms: _39  and  _41
REMARK   16  A    between atoms: _41  and  _42
REMARK   17  A    between atoms: _41  and  _44
REMARK   18  A    between atoms: _44  and  _45
REMARK   19  A    between atoms: _48  and  _50
REMARK   20  A    between atoms: _50  and  _51
REMARK   21  A    between atoms: _50  and  _53
REMARK   22  A    between atoms: _53  and  _54
REMARK   23  A    between atoms: _57  and  _59
REMARK   24  A    between atoms: _59  and  _60
REMARK   25  A    between atoms: _59  and  _62
REMARK   26  A    between atoms: _62  and  _63
REMARK   27  A    between atoms: _66  and  _68
REMARK   28  A    between atoms: _68  and  _69
REMARK   29  A    between atoms: _72  and  _74
REMARK   30  A    between atoms: _74  and  _75
REMARK   31  A    between atoms: _74  and  _77
REMARK   32  A    between atoms: _77  and  _78
REMARK   33  A    between atoms: _81  and  _83
REMARK   34  A    between atoms: _83  and  _84
REMARK   35  A    between atoms: _83  and  _86
REMARK   36  A    between atoms: _89  and  _91
REMARK   37  A    between atoms: _91  and  _92
REMARK   38  A    between atoms: _94  and  _96
REMARK   39  A    between atoms: _96  and  _97
REMARK   40  A    between atoms: _96  and  _99
REMARK   41  A    between atoms: _99  and  _100
REMARK   42  A    between atoms: _100  and  _101
REMARK   43  A    between atoms: _103  and  _105
REMARK   44  A    between atoms: _105  and  _106
REMARK   45  A    between atoms: _105  and  _108
REMARK   46  A    between atoms: _108  and  _109
REMARK   47  A    between atoms: _109  and  _110
REMARK   48  A    between atoms: _112  and  _114
REMARK   49  A    between atoms: _114  and  _115
REMARK   50  A    between atoms: _117  and  _119
REMARK   51  A    between atoms: _119  and  _120
REMARK   52  A    between atoms: _119  and  _122
REMARK   53  A    between atoms: _122  and  _123
REMARK   54  A    between atoms: _126  and  _128
REMARK   55  A    between atoms: _128  and  _129
REMARK   56  A    between atoms: _128  and  _131
REMARK   57  A    between atoms: _134  and  _136
REMARK   58  A    between atoms: _136  and  _137
REMARK   59  A    between atoms: _136  and  _139
REMARK   60  A    between atoms: _139  and  _140
REMARK   61  A    between atoms: _140  and  _141
REMARK   62  A    between atoms: _143  and  _145
REMARK   63  A    between atoms: _145  and  _146
REMARK   64  A    between atoms: _145  and  _148
REMARK   65  A    between atoms: _148  and  _149
REMARK   66  A    between atoms: _152  and  _154
REMARK   67  A    between atoms: _154  and  _155
REMARK   68  A    between atoms: _158  and  _160
REMARK   69  A    between atoms: _160  and  _161
REMARK   70  A    between atoms: _160  and  _163
REMARK   71  A    between atoms: _163  and  _164
REMARK   72  A    between atoms: _169  and  _171
REMARK   73  A    between atoms: _171  and  _172
REMARK   74  A    between atoms: _171  and  _174
REMARK   75  A    between atoms: _174  and  _175
REMARK   76  A    between atoms: _178  and  _180
REMARK   77  A    between atoms: _180  and  _181
REMARK   78  A    between atoms: _180  and  _183
REMARK   79  A    between atoms: _183  and  _184
REMARK   80  A    between atoms: _184  and  _185
REMARK   81  A    between atoms: _188  and  _190
REMARK   82  A    between atoms: _190  and  _191
REMARK   83  A    between atoms: _193  and  _195
REMARK   84  A    between atoms: _195  and  _196
REMARK   85  A    between atoms: _195  and  _198
REMARK   86  A    between atoms: _198  and  _199
REMARK   87  A    between atoms: _199  and  _200
REMARK   88  A    between atoms: _200  and  _201
REMARK   89  A    between atoms: _210  and  _212
REMARK   90  A    between atoms: _212  and  _213
REMARK   91  A    between atoms: _212  and  _215
REMARK   92  A    between atoms: _215  and  _216
REMARK   93  A    between atoms: _216  and  _217
REMARK   94  A    between atoms: _217  and  _218
REMARK   95  A    between atoms: _218  and  _219
REMARK   96  A    between atoms: _223  and  _225
REMARK   97  A    between atoms: _225  and  _226
REMARK   98  A    between atoms: _225  and  _228
REMARK   99  A    between atoms: _228  and  _229
REMARK  100  A    between atoms: _235  and  _237
REMARK  101  A    between atoms: _237  and  _238
REMARK  102  A    between atoms: _237  and  _240
REMARK  103  A    between atoms: _240  and  _241
REMARK  104  A    between atoms: _247  and  _249
REMARK  105  A    between atoms: _249  and  _250
REMARK  106  A    between atoms: _249  and  _252
REMARK  107  A    between atoms: _252  and  _253
REMARK  108  A    between atoms: _256  and  _258
REMARK  109  A    between atoms: _258  and  _259
REMARK  110  A    between atoms: _258  and  _261
REMARK  111  A    between atoms: _261  and  _262
REMARK  112  A    between atoms: _268  and  _270
REMARK  113  A    between atoms: _270  and  _271
REMARK  114  A    between atoms: _270  and  _273
REMARK  115  A    between atoms: _273  and  _274
REMARK  116  A    between atoms: _277  and  _279
REMARK  117  A    between atoms: _279  and  _280
REMARK  118  A    between atoms: _279  and  _282
REMARK  119  A    between atoms: _282  and  _283
REMARK  120  A    between atoms: _283  and  _284
REMARK  121  A    between atoms: _284  and  _285
REMARK  122  A    between atoms: _285  and  _286
REMARK  123  A    between atoms: _290  and  _292
REMARK  124  A    between atoms: _292  and  _293
REMARK  125  A    between atoms: _292  and  _295
REMARK  126  A    between atoms: _295  and  _296
REMARK  127  A    between atoms: _299  and  _301
REMARK  128  A    between atoms: _301  and  _302
REMARK  129  A    between atoms: _301  and  _304
REMARK  130  A    between atoms: _304  and  _305
REMARK  131  A    between atoms: _310  and  _312
REMARK  132  A    between atoms: _312  and  _313
REMARK  133  A    between atoms: _312  and  _315
REMARK  134  A    between atoms: _315  and  _316
REMARK  135  A    between atoms: _316  and  _317
REMARK  136  A    between atoms: _317  and  _318
REMARK  137  A    between atoms: _318  and  _319
REMARK  138  A    between atoms: _323  and  _325
REMARK  139  A    between atoms: _325  and  _326
REMARK  140  A    between atoms: _325  and  _328
REMARK  141  A    between atoms: _328  and  _329
REMARK  142  A    between atoms: _331  and  _333
REMARK  143  A    between atoms: _333  and  _334
REMARK  144  A    between atoms: _333  and  _336
REMARK  145  A    between atoms: _336  and  _337
REMARK  146  A    between atoms: _340  and  _342
REMARK  147  A    between atoms: _342  and  _343
REMARK  148  A    between atoms: _342  and  _345
REMARK  149  A    between atoms: _345  and  _346
REMARK  150  A    between atoms: _346  and  _347
REMARK  151  A    between atoms: _350  and  _352
REMARK  152  A    between atoms: _352  and  _353
REMARK  153  A    between atoms: _356  and  _357
REMARK  154  A    between atoms: _363  and  _364
REMARK  155  A    between atoms: _369  and  _371
REMARK  156  A    between atoms: _371  and  _372
REMARK  157  A    between atoms: _371  and  _374
REMARK  158  A    between atoms: _374  and  _375
REMARK  159  A    between atoms: _381  and  _383
REMARK  160  A    between atoms: _383  and  _384
REMARK  161  A    between atoms: _383  and  _386
REMARK  162  A    between atoms: _386  and  _387
REMARK  163  A    between atoms: _390  and  _392
REMARK  164  A    between atoms: _392  and  _393
REMARK  165  A    between atoms: _392  and  _395
REMARK  166  A    between atoms: _395  and  _396
REMARK  167  A    between atoms: _401  and  _403
REMARK  168  A    between atoms: _403  and  _404
REMARK  169  A    between atoms: _406  and  _408
REMARK  170  A    between atoms: _408  and  _409
REMARK  171  A    between atoms: _411  and  _413
REMARK  172  A    between atoms: _413  and  _414
REMARK  173  A    between atoms: _417  and  _419
REMARK  174  A    between atoms: _419  and  _420
REMARK  175  A    between atoms: _419  and  _422
REMARK  176  A    between atoms: _422  and  _423
REMARK  177  A    between atoms: _426  and  _428
REMARK  178  A    between atoms: _428  and  _429
REMARK  179  A    between atoms: _432  and  _434
REMARK  180  A    between atoms: _434  and  _435
REMARK  181  A    between atoms: _434  and  _437
REMARK  182  A    between atoms: _437  and  _438
REMARK  183  A    between atoms: _443  and  _445
REMARK  184  A    between atoms: _445  and  _446
REMARK  185  A    between atoms: _445  and  _448
REMARK  186  A    between atoms: _448  and  _449
REMARK  187  A    between atoms: _452  and  _454
REMARK  188  A    between atoms: _454  and  _455
REMARK  189  A    between atoms: _454  and  _457
REMARK  190  A    between atoms: _457  and  _458
REMARK  191  A    between atoms: _463  and  _465
REMARK  192  A    between atoms: _465  and  _466
REMARK  193  A    between atoms: _465  and  _468
REMARK  194  A    between atoms: _468  and  _469
REMARK  195  A    between atoms: _474  and  _475
REMARK  196  A    between atoms: _477  and  _479
REMARK  197  A    between atoms: _479  and  _480
REMARK  198  A    between atoms: _479  and  _482
REMARK  199  A    between atoms: _482  and  _483
REMARK  200  A    between atoms: _483  and  _484
REMARK  201  A    between atoms: _484  and  _485
REMARK  202  A    between atoms: _485  and  _486
REMARK  203  A    between atoms: _490  and  _492
REMARK  204  A    between atoms: _492  and  _493
REMARK  205  A    between atoms: _492  and  _495
REMARK  206  A    between atoms: _495  and  _496
REMARK  207  A    between atoms: _496  and  _497
REMARK  208  A    between atoms: _497  and  _498
REMARK  209  A    between atoms: _508  and  _509
REMARK  210  A    between atoms: _514  and  _516
REMARK  211  A    between atoms: _516  and  _517
REMARK  212  A    between atoms: _516  and  _519
REMARK  213  A    between atoms: _519  and  _520
REMARK  214  A    between atoms: _524  and  _525
REMARK  215  A    between atoms: _530  and  _532
REMARK  216  A    between atoms: _532  and  _533
REMARK  217  A    between atoms: _532  and  _535
REMARK  218  A    between atoms: _535  and  _536
REMARK  219  A    between atoms: _539  and  _541
REMARK  220  A    between atoms: _541  and  _542
REMARK  221  A    between atoms: _541  and  _544
REMARK  222  A    between atoms: _544  and  _545
REMARK  223  A    between atoms: _550  and  _551
REMARK  224  A    between atoms: _553  and  _555
REMARK  225  A    between atoms: _555  and  _556
REMARK  226  A    between atoms: _555  and  _558
REMARK  227  A    between atoms: _558  and  _559
REMARK  228  A    between atoms: _561  and  _563
REMARK  229  A    between atoms: _563  and  _564
REMARK  230  A    between atoms: _563  and  _566
REMARK  231  A    between atoms: _566  and  _567
REMARK  232  A    between atoms: _567  and  _568
REMARK                            x       y       z     vdW  Elec       q    Type
REMARK                         _______ _______ _______ _____ _____    ______ ____
ROOT
ATOM      1  O   HOH     1      36.216  60.275  42.645  0.00  0.00    +0.000 OA
ENDROOT
TORSDOF 0
REMARK  Name = ../refined-set-2016/4gah/4gah_pocket.pdb
REMARK  232 active torsions:
REMARK  status: ('A' for Active; 'I' for Inactive)
REMARK    1  A    between atoms: _1  and  _3
REMARK    2  A    between atoms: _3  and  _4
REMARK    3  A    between atoms: _3  and  _6
REMARK    4  A    between atoms: _6  and  _7
REMARK    5  A    between atoms: _7  and  _8
REMARK    6  A    between atoms: _8  and  _9
REMARK    7  A    between atoms: _18  and  _20
REMARK    8  A    between atoms: _20  and  _21
REMARK    9  A    between atoms: _20  and  _23
REMARK   10  A    between atoms: _23  and  _24
REMARK   11  A    between atoms: _27  and  _29
REMARK   12  A    between atoms: _29  and  _30
REMARK   13  A    between atoms: _29  and  _32
REMARK   14  A    between atoms: _32  and  _33
REMARK   15  A    between atoms: _39  and  _41
REMARK   16  A    between atoms: _41  and  _42
REMARK   17  A    between atoms: _41  and  _44
REMARK   18  A    between atoms: _44  and  _45
REMARK   19  A    between atoms: _48  and  _50
REMARK   20  A    between atoms: _50  and  _51
REMARK   21  A    between atoms: _50  and  _53
REMARK   22  A    between atoms: _53  and  _54
REMARK   23  A    between atoms: _57  and  _59
REMARK   24  A    between atoms: _59  and  _60
REMARK   25  A    between atoms: _59  and  _62
REMARK   26  A    between atoms: _62  and  _63
REMARK   27  A    between atoms: _66  and  _68
REMARK   28  A    between atoms: _68  and  _69
REMARK   29  A    between atoms: _72  and  _74
REMARK   30  A    between atoms: _74  and  _75
REMARK   31  A    between atoms: _74  and  _77
REMARK   32  A    between atoms: _77  and  _78
REMARK   33  A    between atoms: _81  and  _83
REMARK   34  A    between atoms: _83  and  _84
REMARK   35  A    between atoms: _83  and  _86
REMARK   36  A    between atoms: _89  and  _91
REMARK   37  A    between atoms: _91  and  _92
REMARK   38  A    between atoms: _94  and  _96
REMARK   39  A    between atoms: _96  and  _97
REMARK   40  A    between atoms: _96  and  _99
REMARK   41  A    between atoms: _99  and  _100
REMARK   42  A    between atoms: _100  and  _101
REMARK   43  A    between atoms: _103  and  _105
REMARK   44  A    between atoms: _105  and  _106
REMARK   45  A    between atoms: _105  and  _108
REMARK   46  A    between atoms: _108  and  _109
REMARK   47  A    between atoms: _109  and  _110
REMARK   48  A    between atoms: _112  and  _114
REMARK   49  A    between atoms: _114  and  _115
REMARK   50  A    between atoms: _117  and  _119
REMARK   51  A    between atoms: _119  and  _120
REMARK   52  A    between atoms: _119  and  _122
REMARK   53  A    between atoms: _122  and  _123
REMARK   54  A    between atoms: _126  and  _128
REMARK   55  A    between atoms: _128  and  _129
REMARK   56  A    between atoms: _128  and  _131
REMARK   57  A    between atoms: _134  and  _136
REMARK   58  A    between atoms: _136  and  _137
REMARK   59  A    between atoms: _136  and  _139
REMARK   60  A    between atoms: _139  and  _140
REMARK   61  A    between atoms: _140  and  _141
REMARK   62  A    between atoms: _143  and  _145
REMARK   63  A    between atoms: _145  and  _146
REMARK   64  A    between atoms: _145  and  _148
REMARK   65  A    between atoms: _148  and  _149
REMARK   66  A    between atoms: _152  and  _154
REMARK   67  A    between atoms: _154  and  _155
REMARK   68  A    between atoms: _158  and  _160
REMARK   69  A    between atoms: _160  and  _161
REMARK   70  A    between atoms: _160  and  _163
REMARK   71  A    between atoms: _163  and  _164
REMARK   72  A    between atoms: _169  and  _171
REMARK   73  A    between atoms: _171  and  _172
REMARK   74  A    between atoms: _171  and  _174
REMARK   75  A    between atoms: _174  and  _175
REMARK   76  A    between atoms: _178  and  _180
REMARK   77  A    between atoms: _180  and  _181
REMARK   78  A    between atoms: _180  and  _183
REMARK   79  A    between atoms: _183  and  _184
REMARK   80  A    between atoms: _184  and  _185
REMARK   81  A    between atoms: _188  and  _190
REMARK   82  A    between atoms: _190  and  _191
REMARK   83  A    between atoms: _193  and  _195
REMARK   84  A    between atoms: _195  and  _196
REMARK   85  A    between atoms: _195  and  _198
REMARK   86  A    between atoms: _198  and  _199
REMARK   87  A    between atoms: _199  and  _200
REMARK   88  A    between atoms: _200  and  _201
REMARK   89  A    between atoms: _210  and  _212
REMARK   90  A    between atoms: _212  and  _213
REMARK   91  A    between atoms: _212  and  _215
REMARK   92  A    between atoms: _215  and  _216
REMARK   93  A    between atoms: _216  and  _217
REMARK   94  A    between atoms: _217  and  _218
REMARK   95  A    between atoms: _218  and  _219
REMARK   96  A    between atoms: _223  and  _225
REMARK   97  A    between atoms: _225  and  _226
REMARK   98  A    between atoms: _225  and  _228
REMARK   99  A    between atoms: _228  and  _229
REMARK  100  A    between atoms: _235  and  _237
REMARK  101  A    between atoms: _237  and  _238
REMARK  102  A    between atoms: _237  and  _240
REMARK  103  A    between atoms: _240  and  _241
REMARK  104  A    between atoms: _247  and  _249
REMARK  105  A    between atoms: _249  and  _250
REMARK  106  A    between atoms: _249  and  _252
REMARK  107  A    between atoms: _252  and  _253
REMARK  108  A    between atoms: _256  and  _258
REMARK  109  A    between atoms: _258  and  _259
REMARK  110  A    between atoms: _258  and  _261
REMARK  111  A    between atoms: _261  and  _262
REMARK  112  A    between atoms: _268  and  _270
REMARK  113  A    between atoms: _270  and  _271
REMARK  114  A    between atoms: _270  and  _273
REMARK  115  A    between atoms: _273  and  _274
REMARK  116  A    between atoms: _277  and  _279
REMARK  117  A    between atoms: _279  and  _280
REMARK  118  A    between atoms: _279  and  _282
REMARK  119  A    between atoms: _282  and  _283
REMARK  120  A    between atoms: _283  and  _284
REMARK  121  A    between atoms: _284  and  _285
REMARK  122  A    between atoms: _285  and  _286
REMARK  123  A    between atoms: _290  and  _292
REMARK  124  A    between atoms: _292  and  _293
REMARK  125  A    between atoms: _292  and  _295
REMARK  126  A    between atoms: _295  and  _296
REMARK  127  A    between atoms: _299  and  _301
REMARK  128  A    between atoms: _301  and  _302
REMARK  129  A    between atoms: _301  and  _304
REMARK  130  A    between atoms: _304  and  _305
REMARK  131  A    between atoms: _310  and  _312
REMARK  132  A    between atoms: _312  and  _313
REMARK  133  A    between atoms: _312  and  _315
REMARK  134  A    between atoms: _315  and  _316
REMARK  135  A    between atoms: _316  and  _317
REMARK  136  A    between atoms: _317  and  _318
REMARK  137  A    between atoms: _318  and  _319
REMARK  138  A    between atoms: _323  and  _325
REMARK  139  A    between atoms: _325  and  _326
REMARK  140  A    between atoms: _325  and  _328
REMARK  141  A    between atoms: _328  and  _329
REMARK  142  A    between atoms: _331  and  _333
REMARK  143  A    between atoms: _333  and  _334
REMARK  144  A    between atoms: _333  and  _336
REMARK  145  A    between atoms: _336  and  _337
REMARK  146  A    between atoms: _340  and  _342
REMARK  147  A    between atoms: _342  and  _343
REMARK  148  A    between atoms: _342  and  _345
REMARK  149  A    between atoms: _345  and  _346
REMARK  150  A    between atoms: _346  and  _347
REMARK  151  A    between atoms: _350  and  _352
REMARK  152  A    between atoms: _352  and  _353
REMARK  153  A    between atoms: _356  and  _357
REMARK  154  A    between atoms: _363  and  _364
REMARK  155  A    between atoms: _369  and  _371
REMARK  156  A    between atoms: _371  and  _372
REMARK  157  A    between atoms: _371  and  _374
REMARK  158  A    between atoms: _374  and  _375
REMARK  159  A    between atoms: _381  and  _383
REMARK  160  A    between atoms: _383  and  _384
REMARK  161  A    between atoms: _383  and  _386
REMARK  162  A    between atoms: _386  and  _387
REMARK  163  A    between atoms: _390  and  _392
REMARK  164  A    between atoms: _392  and  _393
REMARK  165  A    between atoms: _392  and  _395
REMARK  166  A    between atoms: _395  and  _396
REMARK  167  A    between atoms: _401  and  _403
REMARK  168  A    between atoms: _403  and  _404
REMARK  169  A    between atoms: _406  and  _408
REMARK  170  A    between atoms: _408  and  _409
REMARK  171  A    between atoms: _411  and  _413
REMARK  172  A    between atoms: _413  and  _414
REMARK  173  A    between atoms: _417  and  _419
REMARK  174  A    between atoms: _419  and  _420
REMARK  175  A    between atoms: _419  and  _422
REMARK  176  A    between atoms: _422  and  _423
REMARK  177  A    between atoms: _426  and  _428
REMARK  178  A    between atoms: _428  and  _429
REMARK  179  A    between atoms: _432  and  _434
REMARK  180  A    between atoms: _434  and  _435
REMARK  181  A    between atoms: _434  and  _437
REMARK  182  A    between atoms: _437  and  _438
REMARK  183  A    between atoms: _443  and  _445
REMARK  184  A    between atoms: _445  and  _446
REMARK  185  A    between atoms: _445  and  _448
REMARK  186  A    between atoms: _448  and  _449
REMARK  187  A    between atoms: _452  and  _454
REMARK  188  A    between atoms: _454  and  _455
REMARK  189  A    between atoms: _454  and  _457
REMARK  190  A    between atoms: _457  and  _458
REMARK  191  A    between atoms: _463  and  _465
REMARK  192  A    between atoms: _465  and  _466
REMARK  193  A    between atoms: _465  and  _468
REMARK  194  A    between atoms: _468  and  _469
REMARK  195  A    between atoms: _474  and  _475
REMARK  196  A    between atoms: _477  and  _479
REMARK  197  A    between atoms: _479  and  _480
REMARK  198  A    between atoms: _479  and  _482
REMARK  199  A    between atoms: _482  and  _483
REMARK  200  A    between atoms: _483  and  _484
REMARK  201  A    between atoms: _484  and  _485
REMARK  202  A    between atoms: _485  and  _486
REMARK  203  A    between atoms: _490  and  _492
REMARK  204  A    between atoms: _492  and  _493
REMARK  205  A    between atoms: _492  and  _495
REMARK  206  A    between atoms: _495  and  _496
REMARK  207  A    between atoms: _496  and  _497
REMARK  208  A    between atoms: _497  and  _498
REMARK  209  A    between atoms: _508  and  _509
REMARK  210  A    between atoms: _514  and  _516
REMARK  211  A    between atoms: _516  and  _517
REMARK  212  A    between atoms: _516  and  _519
REMARK  213  A    between atoms: _519  and  _520
REMARK  214  A    between atoms: _524  and  _525
REMARK  215  A    between atoms: _530  and  _532
REMARK  216  A    between atoms: _532  and  _533
REMARK  217  A    between atoms: _532  and  _535
REMARK  218  A    between atoms: _535  and  _536
REMARK  219  A    between atoms: _539  and  _541
REMARK  220  A    between atoms: _541  and  _542
REMARK  221  A    between atoms: _541  and  _544
REMARK  222  A    between atoms: _544  and  _545
REMARK  223  A    between atoms: _550  and  _551
REMARK  224  A    between atoms: _553  and  _555
REMARK  225  A    between atoms: _555  and  _556
REMARK  226  A    between atoms: _555  and  _558
REMARK  227  A    between atoms: _558  and  _559
REMARK  228  A    between atoms: _561  and  _563
REMARK  229  A    between atoms: _563  and  _564
REMARK  230  A    between atoms: _563  and  _566
REMARK  231  A    between atoms: _566  and  _567
REMARK  232  A    between atoms: _567  and  _568
REMARK                            x       y       z     vdW  Elec       q    Type
REMARK                         _______ _______ _______ _____ _____    ______ ____
ROOT
ATOM      1  O   HOH     1      41.980  60.924  34.662  0.00  0.00    +0.000 OA
ENDROOT
TORSDOF 0
REMARK  Name = ../refined-set-2016/4gah/4gah_pocket.pdb
REMARK  232 active torsions:
REMARK  status: ('A' for Active; 'I' for Inactive)
REMARK    1  A    between atoms: _1  and  _3
REMARK    2  A    between atoms: _3  and  _4
REMARK    3  A    between atoms: _3  and  _6
REMARK    4  A    between atoms: _6  and  _7
REMARK    5  A    between atoms: _7  and  _8
REMARK    6  A    between atoms: _8  and  _9
REMARK    7  A    between atoms: _18  and  _20
REMARK    8  A    between atoms: _20  and  _21
REMARK    9  A    between atoms: _20  and  _23
REMARK   10  A    between atoms: _23  and  _24
REMARK   11  A    between atoms: _27  and  _29
REMARK   12  A    between atoms: _29  and  _30
REMARK   13  A    between atoms: _29  and  _32
REMARK   14  A    between atoms: _32  and  _33
REMARK   15  A    between atoms: _39  and  _41
REMARK   16  A    between atoms: _41  and  _42
REMARK   17  A    between atoms: _41  and  _44
REMARK   18  A    between atoms: _44  and  _45
REMARK   19  A    between atoms: _48  and  _50
REMARK   20  A    between atoms: _50  and  _51
REMARK   21  A    between atoms: _50  and  _53
REMARK   22  A    between atoms: _53  and  _54
REMARK   23  A    between atoms: _57  and  _59
REMARK   24  A    between atoms: _59  and  _60
REMARK   25  A    between atoms: _59  and  _62
REMARK   26  A    between atoms: _62  and  _63
REMARK   27  A    between atoms: _66  and  _68
REMARK   28  A    between atoms: _68  and  _69
REMARK   29  A    between atoms: _72  and  _74
REMARK   30  A    between atoms: _74  and  _75
REMARK   31  A    between atoms: _74  and  _77
REMARK   32  A    between atoms: _77  and  _78
REMARK   33  A    between atoms: _81  and  _83
REMARK   34  A    between atoms: _83  and  _84
REMARK   35  A    between atoms: _83  and  _86
REMARK   36  A    between atoms: _89  and  _91
REMARK   37  A    between atoms: _91  and  _92
REMARK   38  A    between atoms: _94  and  _96
REMARK   39  A    between atoms: _96  and  _97
REMARK   40  A    between atoms: _96  and  _99
REMARK   41  A    between atoms: _99  and  _100
REMARK   42  A    between atoms: _100  and  _101
REMARK   43  A    between atoms: _103  and  _105
REMARK   44  A    between atoms: _105  and  _106
REMARK   45  A    between atoms: _105  and  _108
REMARK   46  A    between atoms: _108  and  _109
REMARK   47  A    between atoms: _109  and  _110
REMARK   48  A    between atoms: _112  and  _114
REMARK   49  A    between atoms: _114  and  _115
REMARK   50  A    between atoms: _117  and  _119
REMARK   51  A    between atoms: _119  and  _120
REMARK   52  A    between atoms: _119  and  _122
REMARK   53  A    between atoms: _122  and  _123
REMARK   54  A    between atoms: _126  and  _128
REMARK   55  A    between atoms: _128  and  _129
REMARK   56  A    between atoms: _128  and  _131
REMARK   57  A    between atoms: _134  and  _136
REMARK   58  A    between atoms: _136  and  _137
REMARK   59  A    between atoms: _136  and  _139
REMARK   60  A    between atoms: _139  and  _140
REMARK   61  A    between atoms: _140  and  _141
REMARK   62  A    between atoms: _143  and  _145
REMARK   63  A    between atoms: _145  and  _146
REMARK   64  A    between atoms: _145  and  _148
REMARK   65  A    between atoms: _148  and  _149
REMARK   66  A    between atoms: _152  and  _154
REMARK   67  A    between atoms: _154  and  _155
REMARK   68  A    between atoms: _158  and  _160
REMARK   69  A    between atoms: _160  and  _161
REMARK   70  A    between atoms: _160  and  _163
REMARK   71  A    between atoms: _163  and  _164
REMARK   72  A    between atoms: _169  and  _171
REMARK   73  A    between atoms: _171  and  _172
REMARK   74  A    between atoms: _171  and  _174
REMARK   75  A    between atoms: _174  and  _175
REMARK   76  A    between atoms: _178  and  _180
REMARK   77  A    between atoms: _180  and  _181
REMARK   78  A    between atoms: _180  and  _183
REMARK   79  A    between atoms: _183  and  _184
REMARK   80  A    between atoms: _184  and  _185
REMARK   81  A    between atoms: _188  and  _190
REMARK   82  A    between atoms: _190  and  _191
REMARK   83  A    between atoms: _193  and  _195
REMARK   84  A    between atoms: _195  and  _196
REMARK   85  A    between atoms: _195  and  _198
REMARK   86  A    between atoms: _198  and  _199
REMARK   87  A    between atoms: _199  and  _200
REMARK   88  A    between atoms: _200  and  _201
REMARK   89  A    between atoms: _210  and  _212
REMARK   90  A    between atoms: _212  and  _213
REMARK   91  A    between atoms: _212  and  _215
REMARK   92  A    between atoms: _215  and  _216
REMARK   93  A    between atoms: _216  and  _217
REMARK   94  A    between atoms: _217  and  _218
REMARK   95  A    between atoms: _218  and  _219
REMARK   96  A    between atoms: _223  and  _225
REMARK   97  A    between atoms: _225  and  _226
REMARK   98  A    between atoms: _225  and  _228
REMARK   99  A    between atoms: _228  and  _229
REMARK  100  A    between atoms: _235  and  _237
REMARK  101  A    between atoms: _237  and  _238
REMARK  102  A    between atoms: _237  and  _240
REMARK  103  A    between atoms: _240  and  _241
REMARK  104  A    between atoms: _247  and  _249
REMARK  105  A    between atoms: _249  and  _250
REMARK  106  A    between atoms: _249  and  _252
REMARK  107  A    between atoms: _252  and  _253
REMARK  108  A    between atoms: _256  and  _258
REMARK  109  A    between atoms: _258  and  _259
REMARK  110  A    between atoms: _258  and  _261
REMARK  111  A    between atoms: _261  and  _262
REMARK  112  A    between atoms: _268  and  _270
REMARK  113  A    between atoms: _270  and  _271
REMARK  114  A    between atoms: _270  and  _273
REMARK  115  A    between atoms: _273  and  _274
REMARK  116  A    between atoms: _277  and  _279
REMARK  117  A    between atoms: _279  and  _280
REMARK  118  A    between atoms: _279  and  _282
REMARK  119  A    between atoms: _282  and  _283
REMARK  120  A    between atoms: _283  and  _284
REMARK  121  A    between atoms: _284  and  _285
REMARK  122  A    between atoms: _285  and  _286
REMARK  123  A    between atoms: _290  and  _292
REMARK  124  A    between atoms: _292  and  _293
REMARK  125  A    between atoms: _292  and  _295
REMARK  126  A    between atoms: _295  and  _296
REMARK  127  A    between atoms: _299  and  _301
REMARK  128  A    between atoms: _301  and  _302
REMARK  129  A    between atoms: _301  and  _304
REMARK  130  A    between atoms: _304  and  _305
REMARK  131  A    between atoms: _310  and  _312
REMARK  132  A    between atoms: _312  and  _313
REMARK  133  A    between atoms: _312  and  _315
REMARK  134  A    between atoms: _315  and  _316
REMARK  135  A    between atoms: _316  and  _317
REMARK  136  A    between atoms: _317  and  _318
REMARK  137  A    between atoms: _318  and  _319
REMARK  138  A    between atoms: _323  and  _325
REMARK  139  A    between atoms: _325  and  _326
REMARK  140  A    between atoms: _325  and  _328
REMARK  141  A    between atoms: _328  and  _329
REMARK  142  A    between atoms: _331  and  _333
REMARK  143  A    between atoms: _333  and  _334
REMARK  144  A    between atoms: _333  and  _336
REMARK  145  A    between atoms: _336  and  _337
REMARK  146  A    between atoms: _340  and  _342
REMARK  147  A    between atoms: _342  and  _343
REMARK  148  A    between atoms: _342  and  _345
REMARK  149  A    between atoms: _345  and  _346
REMARK  150  A    between atoms: _346  and  _347
REMARK  151  A    between atoms: _350  and  _352
REMARK  152  A    between atoms: _352  and  _353
REMARK  153  A    between atoms: _356  and  _357
REMARK  154  A    between atoms: _363  and  _364
REMARK  155  A    between atoms: _369  and  _371
REMARK  156  A    between atoms: _371  and  _372
REMARK  157  A    between atoms: _371  and  _374
REMARK  158  A    between atoms: _374  and  _375
REMARK  159  A    between atoms: _381  and  _383
REMARK  160  A    between atoms: _383  and  _384
REMARK  161  A    between atoms: _383  and  _386
REMARK  162  A    between atoms: _386  and  _387
REMARK  163  A    between atoms: _390  and  _392
REMARK  164  A    between atoms: _392  and  _393
REMARK  165  A    between atoms: _392  and  _395
REMARK  166  A    between atoms: _395  and  _396
REMARK  167  A    between atoms: _401  and  _403
REMARK  168  A    between atoms: _403  and  _404
REMARK  169  A    between atoms: _406  and  _408
REMARK  170  A    between atoms: _408  and  _409
REMARK  171  A    between atoms: _411  and  _413
REMARK  172  A    between atoms: _413  and  _414
REMARK  173  A    between atoms: _417  and  _419
REMARK  174  A    between atoms: _419  and  _420
REMARK  175  A    between atoms: _419  and  _422
REMARK  176  A    between atoms: _422  and  _423
REMARK  177  A    between atoms: _426  and  _428
REMARK  178  A    between atoms: _428  and  _429
REMARK  179  A    between atoms: _432  and  _434
REMARK  180  A    between atoms: _434  and  _435
REMARK  181  A    between atoms: _434  and  _437
REMARK  182  A    between atoms: _437  and  _438
REMARK  183  A    between atoms: _443  and  _445
REMARK  184  A    between atoms: _445  and  _446
REMARK  185  A    between atoms: _445  and  _448
REMARK  186  A    between atoms: _448  and  _449
REMARK  187  A    between atoms: _452  and  _454
REMARK  188  A    between atoms: _454  and  _455
REMARK  189  A    between atoms: _454  and  _457
REMARK  190  A    between atoms: _457  and  _458
REMARK  191  A    between atoms: _463  and  _465
REMARK  192  A    between atoms: _465  and  _466
REMARK  193  A    between atoms: _465  and  _468
REMARK  194  A    between atoms: _468  and  _469
REMARK  195  A    between atoms: _474  and  _475
REMARK  196  A    between atoms: _477  and  _479
REMARK  197  A    between atoms: _479  and  _480
REMARK  198  A    between atoms: _479  and  _482
REMARK  199  A    between atoms: _482  and  _483
REMARK  200  A    between atoms: _483  and  _484
REMARK  201  A    between atoms: _484  and  _485
REMARK  202  A    between atoms: _485  and  _486
REMARK  203  A    between atoms: _490  and  _492
REMARK  204  A    between atoms: _492  and  _493
REMARK  205  A    between atoms: _492  and  _495
REMARK  206  A    between atoms: _495  and  _496
REMARK  207  A    between atoms: _496  and  _497
REMARK  208  A    between atoms: _497  and  _498
REMARK  209  A    between atoms: _508  and  _509
REMARK  210  A    between atoms: _514  and  _516
REMARK  211  A    between atoms: _516  and  _517
REMARK  212  A    between atoms: _516  and  _519
REMARK  213  A    between atoms: _519  and  _520
REMARK  214  A    between atoms: _524  and  _525
REMARK  215  A    between atoms: _530  and  _532
REMARK  216  A    between atoms: _532  and  _533
REMARK  217  A    between atoms: _532  and  _535
REMARK  218  A    between atoms: _535  and  _536
REMARK  219  A    between atoms: _539  and  _541
REMARK  220  A    between atoms: _541  and  _542
REMARK  221  A    between atoms: _541  and  _544
REMARK  222  A    between atoms: _544  and  _545
REMARK  223  A    between atoms: _550  and  _551
REMARK  224  A    between atoms: _553  and  _555
REMARK  225  A    between atoms: _555  and  _556
REMARK  226  A    between atoms: _555  and  _558
REMARK  227  A    between atoms: _558  and  _559
REMARK  228  A    between atoms: _561  and  _563
REMARK  229  A    between atoms: _563  and  _564
REMARK  230  A    between atoms: _563  and  _566
REMARK  231  A    between atoms: _566  and  _567
REMARK  232  A    between atoms: _567  and  _568
REMARK                            x       y       z     vdW  Elec       q    Type
REMARK                         _______ _______ _______ _____ _____    ______ ____
ROOT
ATOM      1  O   HOH     1      25.511  68.856  43.319  0.00  0.00    +0.000 OA
ENDROOT
TORSDOF 0
REMARK  Name = ../refined-set-2016/4gah/4gah_pocket.pdb
REMARK  232 active torsions:
REMARK  status: ('A' for Active; 'I' for Inactive)
REMARK    1  A    between atoms: _1  and  _3
REMARK    2  A    between atoms: _3  and  _4
REMARK    3  A    between atoms: _3  and  _6
REMARK    4  A    between atoms: _6  and  _7
REMARK    5  A    between atoms: _7  and  _8
REMARK    6  A    between atoms: _8  and  _9
REMARK    7  A    between atoms: _18  and  _20
REMARK    8  A    between atoms: _20  and  _21
REMARK    9  A    between atoms: _20  and  _23
REMARK   10  A    between atoms: _23  and  _24
REMARK   11  A    between atoms: _27  and  _29
REMARK   12  A    between atoms: _29  and  _30
REMARK   13  A    between atoms: _29  and  _32
REMARK   14  A    between atoms: _32  and  _33
REMARK   15  A    between atoms: _39  and  _41
REMARK   16  A    between atoms: _41  and  _42
REMARK   17  A    between atoms: _41  and  _44
REMARK   18  A    between atoms: _44  and  _45
REMARK   19  A    between atoms: _48  and  _50
REMARK   20  A    between atoms: _50  and  _51
REMARK   21  A    between atoms: _50  and  _53
REMARK   22  A    between atoms: _53  and  _54
REMARK   23  A    between atoms: _57  and  _59
REMARK   24  A    between atoms: _59  and  _60
REMARK   25  A    between atoms: _59  and  _62
REMARK   26  A    between atoms: _62  and  _63
REMARK   27  A    between atoms: _66  and  _68
REMARK   28  A    between atoms: _68  and  _69
REMARK   29  A    between atoms: _72  and  _74
REMARK   30  A    between atoms: _74  and  _75
REMARK   31  A    between atoms: _74  and  _77
REMARK   32  A    between atoms: _77  and  _78
REMARK   33  A    between atoms: _81  and  _83
REMARK   34  A    between atoms: _83  and  _84
REMARK   35  A    between atoms: _83  and  _86
REMARK   36  A    between atoms: _89  and  _91
REMARK   37  A    between atoms: _91  and  _92
REMARK   38  A    between atoms: _94  and  _96
REMARK   39  A    between atoms: _96  and  _97
REMARK   40  A    between atoms: _96  and  _99
REMARK   41  A    between atoms: _99  and  _100
REMARK   42  A    between atoms: _100  and  _101
REMARK   43  A    between atoms: _103  and  _105
REMARK   44  A    between atoms: _105  and  _106
REMARK   45  A    between atoms: _105  and  _108
REMARK   46  A    between atoms: _108  and  _109
REMARK   47  A    between atoms: _109  and  _110
REMARK   48  A    between atoms: _112  and  _114
REMARK   49  A    between atoms: _114  and  _115
REMARK   50  A    between atoms: _117  and  _119
REMARK   51  A    between atoms: _119  and  _120
REMARK   52  A    between atoms: _119  and  _122
REMARK   53  A    between atoms: _122  and  _123
REMARK   54  A    between atoms: _126  and  _128
REMARK   55  A    between atoms: _128  and  _129
REMARK   56  A    between atoms: _128  and  _131
REMARK   57  A    between atoms: _134  and  _136
REMARK   58  A    between atoms: _136  and  _137
REMARK   59  A    between atoms: _136  and  _139
REMARK   60  A    between atoms: _139  and  _140
REMARK   61  A    between atoms: _140  and  _141
REMARK   62  A    between atoms: _143  and  _145
REMARK   63  A    between atoms: _145  and  _146
REMARK   64  A    between atoms: _145  and  _148
REMARK   65  A    between atoms: _148  and  _149
REMARK   66  A    between atoms: _152  and  _154
REMARK   67  A    between atoms: _154  and  _155
REMARK   68  A    between atoms: _158  and  _160
REMARK   69  A    between atoms: _160  and  _161
REMARK   70  A    between atoms: _160  and  _163
REMARK   71  A    between atoms: _163  and  _164
REMARK   72  A    between atoms: _169  and  _171
REMARK   73  A    between atoms: _171  and  _172
REMARK   74  A    between atoms: _171  and  _174
REMARK   75  A    between atoms: _174  and  _175
REMARK   76  A    between atoms: _178  and  _180
REMARK   77  A    between atoms: _180  and  _181
REMARK   78  A    between atoms: _180  and  _183
REMARK   79  A    between atoms: _183  and  _184
REMARK   80  A    between atoms: _184  and  _185
REMARK   81  A    between atoms: _188  and  _190
REMARK   82  A    between atoms: _190  and  _191
REMARK   83  A    between atoms: _193  and  _195
REMARK   84  A    between atoms: _195  and  _196
REMARK   85  A    between atoms: _195  and  _198
REMARK   86  A    between atoms: _198  and  _199
REMARK   87  A    between atoms: _199  and  _200
REMARK   88  A    between atoms: _200  and  _201
REMARK   89  A    between atoms: _210  and  _212
REMARK   90  A    between atoms: _212  and  _213
REMARK   91  A    between atoms: _212  and  _215
REMARK   92  A    between atoms: _215  and  _216
REMARK   93  A    between atoms: _216  and  _217
REMARK   94  A    between atoms: _217  and  _218
REMARK   95  A    between atoms: _218  and  _219
REMARK   96  A    between atoms: _223  and  _225
REMARK   97  A    between atoms: _225  and  _226
REMARK   98  A    between atoms: _225  and  _228
REMARK   99  A    between atoms: _228  and  _229
REMARK  100  A    between atoms: _235  and  _237
REMARK  101  A    between atoms: _237  and  _238
REMARK  102  A    between atoms: _237  and  _240
REMARK  103  A    between atoms: _240  and  _241
REMARK  104  A    between atoms: _247  and  _249
REMARK  105  A    between atoms: _249  and  _250
REMARK  106  A    between atoms: _249  and  _252
REMARK  107  A    between atoms: _252  and  _253
REMARK  108  A    between atoms: _256  and  _258
REMARK  109  A    between atoms: _258  and  _259
REMARK  110  A    between atoms: _258  and  _261
REMARK  111  A    between atoms: _261  and  _262
REMARK  112  A    between atoms: _268  and  _270
REMARK  113  A    between atoms: _270  and  _271
REMARK  114  A    between atoms: _270  and  _273
REMARK  115  A    between atoms: _273  and  _274
REMARK  116  A    between atoms: _277  and  _279
REMARK  117  A    between atoms: _279  and  _280
REMARK  118  A    between atoms: _279  and  _282
REMARK  119  A    between atoms: _282  and  _283
REMARK  120  A    between atoms: _283  and  _284
REMARK  121  A    between atoms: _284  and  _285
REMARK  122  A    between atoms: _285  and  _286
REMARK  123  A    between atoms: _290  and  _292
REMARK  124  A    between atoms: _292  and  _293
REMARK  125  A    between atoms: _292  and  _295
REMARK  126  A    between atoms: _295  and  _296
REMARK  127  A    between atoms: _299  and  _301
REMARK  128  A    between atoms: _301  and  _302
REMARK  129  A    between atoms: _301  and  _304
REMARK  130  A    between atoms: _304  and  _305
REMARK  131  A    between atoms: _310  and  _312
REMARK  132  A    between atoms: _312  and  _313
REMARK  133  A    between atoms: _312  and  _315
REMARK  134  A    between atoms: _315  and  _316
REMARK  135  A    between atoms: _316  and  _317
REMARK  136  A    between atoms: _317  and  _318
REMARK  137  A    between atoms: _318  and  _319
REMARK  138  A    between atoms: _323  and  _325
REMARK  139  A    between atoms: _325  and  _326
REMARK  140  A    between atoms: _325  and  _328
REMARK  141  A    between atoms: _328  and  _329
REMARK  142  A    between atoms: _331  and  _333
REMARK  143  A    between atoms: _333  and  _334
REMARK  144  A    between atoms: _333  and  _336
REMARK  145  A    between atoms: _336  and  _337
REMARK  146  A    between atoms: _340  and  _342
REMARK  147  A    between atoms: _342  and  _343
REMARK  148  A    between atoms: _342  and  _345
REMARK  149  A    between atoms: _345  and  _346
REMARK  150  A    between atoms: _346  and  _347
REMARK  151  A    between atoms: _350  and  _352
REMARK  152  A    between atoms: _352  and  _353
REMARK  153  A    between atoms: _356  and  _357
REMARK  154  A    between atoms: _363  and  _364
REMARK  155  A    between atoms: _369  and  _371
REMARK  156  A    between atoms: _371  and  _372
REMARK  157  A    between atoms: _371  and  _374
REMARK  158  A    between atoms: _374  and  _375
REMARK  159  A    between atoms: _381  and  _383
REMARK  160  A    between atoms: _383  and  _384
REMARK  161  A    between atoms: _383  and  _386
REMARK  162  A    between atoms: _386  and  _387
REMARK  163  A    between atoms: _390  and  _392
REMARK  164  A    between atoms: _392  and  _393
REMARK  165  A    between atoms: _392  and  _395
REMARK  166  A    between atoms: _395  and  _396
REMARK  167  A    between atoms: _401  and  _403
REMARK  168  A    between atoms: _403  and  _404
REMARK  169  A    between atoms: _406  and  _408
REMARK  170  A    between atoms: _408  and  _409
REMARK  171  A    between atoms: _411  and  _413
REMARK  172  A    between atoms: _413  and  _414
REMARK  173  A    between atoms: _417  and  _419
REMARK  174  A    between atoms: _419  and  _420
REMARK  175  A    between atoms: _419  and  _422
REMARK  176  A    between atoms: _422  and  _423
REMARK  177  A    between atoms: _426  and  _428
REMARK  178  A    between atoms: _428  and  _429
REMARK  179  A    between atoms: _432  and  _434
REMARK  180  A    between atoms: _434  and  _435
REMARK  181  A    between atoms: _434  and  _437
REMARK  182  A    between atoms: _437  and  _438
REMARK  183  A    between atoms: _443  and  _445
REMARK  184  A    between atoms: _445  and  _446
REMARK  185  A    between atoms: _445  and  _448
REMARK  186  A    between atoms: _448  and  _449
REMARK  187  A    between atoms: _452  and  _454
REMARK  188  A    between atoms: _454  and  _455
REMARK  189  A    between atoms: _454  and  _457
REMARK  190  A    between atoms: _457  and  _458
REMARK  191  A    between atoms: _463  and  _465
REMARK  192  A    between atoms: _465  and  _466
REMARK  193  A    between atoms: _465  and  _468
REMARK  194  A    between atoms: _468  and  _469
REMARK  195  A    between atoms: _474  and  _475
REMARK  196  A    between atoms: _477  and  _479
REMARK  197  A    between atoms: _479  and  _480
REMARK  198  A    between atoms: _479  and  _482
REMARK  199  A    between atoms: _482  and  _483
REMARK  200  A    between atoms: _483  and  _484
REMARK  201  A    between atoms: _484  and  _485
REMARK  202  A    between atoms: _485  and  _486
REMARK  203  A    between atoms: _490  and  _492
REMARK  204  A    between atoms: _492  and  _493
REMARK  205  A    between atoms: _492  and  _495
REMARK  206  A    between atoms: _495  and  _496
REMARK  207  A    between atoms: _496  and  _497
REMARK  208  A    between atoms: _497  and  _498
REMARK  209  A    between atoms: _508  and  _509
REMARK  210  A    between atoms: _514  and  _516
REMARK  211  A    between atoms: _516  and  _517
REMARK  212  A    between atoms: _516  and  _519
REMARK  213  A    between atoms: _519  and  _520
REMARK  214  A    between atoms: _524  and  _525
REMARK  215  A    between atoms: _530  and  _532
REMARK  216  A    between atoms: _532  and  _533
REMARK  217  A    between atoms: _532  and  _535
REMARK  218  A    between atoms: _535  and  _536
REMARK  219  A    between atoms: _539  and  _541
REMARK  220  A    between atoms: _541  and  _542
REMARK  221  A    between atoms: _541  and  _544
REMARK  222  A    between atoms: _544  and  _545
REMARK  223  A    between atoms: _550  and  _551
REMARK  224  A    between atoms: _553  and  _555
REMARK  225  A    between atoms: _555  and  _556
REMARK  226  A    between atoms: _555  and  _558
REMARK  227  A    between atoms: _558  and  _559
REMARK  228  A    between atoms: _561  and  _563
REMARK  229  A    between atoms: _563  and  _564
REMARK  230  A    between atoms: _563  and  _566
REMARK  231  A    between atoms: _566  and  _567
REMARK  232  A    between atoms: _567  and  _568
REMARK                            x       y       z     vdW  Elec       q    Type
REMARK                         _______ _______ _______ _____ _____    ______ ____
ROOT
ATOM      1  O   HOH     1      25.134  55.472  29.857  0.00  0.00    +0.000 OA
ENDROOT
TORSDOF 0
REMARK  Name = ../refined-set-2016/4gah/4gah_pocket.pdb
REMARK  232 active torsions:
REMARK  status: ('A' for Active; 'I' for Inactive)
REMARK    1  A    between atoms: _1  and  _3
REMARK    2  A    between atoms: _3  and  _4
REMARK    3  A    between atoms: _3  and  _6
REMARK    4  A    between atoms: _6  and  _7
REMARK    5  A    between atoms: _7  and  _8
REMARK    6  A    between atoms: _8  and  _9
REMARK    7  A    between atoms: _18  and  _20
REMARK    8  A    between atoms: _20  and  _21
REMARK    9  A    between atoms: _20  and  _23
REMARK   10  A    between atoms: _23  and  _24
REMARK   11  A    between atoms: _27  and  _29
REMARK   12  A    between atoms: _29  and  _30
REMARK   13  A    between atoms: _29  and  _32
REMARK   14  A    between atoms: _32  and  _33
REMARK   15  A    between atoms: _39  and  _41
REMARK   16  A    between atoms: _41  and  _42
REMARK   17  A    between atoms: _41  and  _44
REMARK   18  A    between atoms: _44  and  _45
REMARK   19  A    between atoms: _48  and  _50
REMARK   20  A    between atoms: _50  and  _51
REMARK   21  A    between atoms: _50  and  _53
REMARK   22  A    between atoms: _53  and  _54
REMARK   23  A    between atoms: _57  and  _59
REMARK   24  A    between atoms: _59  and  _60
REMARK   25  A    between atoms: _59  and  _62
REMARK   26  A    between atoms: _62  and  _63
REMARK   27  A    between atoms: _66  and  _68
REMARK   28  A    between atoms: _68  and  _69
REMARK   29  A    between atoms: _72  and  _74
REMARK   30  A    between atoms: _74  and  _75
REMARK   31  A    between atoms: _74  and  _77
REMARK   32  A    between atoms: _77  and  _78
REMARK   33  A    between atoms: _81  and  _83
REMARK   34  A    between atoms: _83  and  _84
REMARK   35  A    between atoms: _83  and  _86
REMARK   36  A    between atoms: _89  and  _91
REMARK   37  A    between atoms: _91  and  _92
REMARK   38  A    between atoms: _94  and  _96
REMARK   39  A    between atoms: _96  and  _97
REMARK   40  A    between atoms: _96  and  _99
REMARK   41  A    between atoms: _99  and  _100
REMARK   42  A    between atoms: _100  and  _101
REMARK   43  A    between atoms: _103  and  _105
REMARK   44  A    between atoms: _105  and  _106
REMARK   45  A    between atoms: _105  and  _108
REMARK   46  A    between atoms: _108  and  _109
REMARK   47  A    between atoms: _109  and  _110
REMARK   48  A    between atoms: _112  and  _114
REMARK   49  A    between atoms: _114  and  _115
REMARK   50  A    between atoms: _117  and  _119
REMARK   51  A    between atoms: _119  and  _120
REMARK   52  A    between atoms: _119  and  _122
REMARK   53  A    between atoms: _122  and  _123
REMARK   54  A    between atoms: _126  and  _128
REMARK   55  A    between atoms: _128  and  _129
REMARK   56  A    between atoms: _128  and  _131
REMARK   57  A    between atoms: _134  and  _136
REMARK   58  A    between atoms: _136  and  _137
REMARK   59  A    between atoms: _136  and  _139
REMARK   60  A    between atoms: _139  and  _140
REMARK   61  A    between atoms: _140  and  _141
REMARK   62  A    between atoms: _143  and  _145
REMARK   63  A    between atoms: _145  and  _146
REMARK   64  A    between atoms: _145  and  _148
REMARK   65  A    between atoms: _148  and  _149
REMARK   66  A    between atoms: _152  and  _154
REMARK   67  A    between atoms: _154  and  _155
REMARK   68  A    between atoms: _158  and  _160
REMARK   69  A    between atoms: _160  and  _161
REMARK   70  A    between atoms: _160  and  _163
REMARK   71  A    between atoms: _163  and  _164
REMARK   72  A    between atoms: _169  and  _171
REMARK   73  A    between atoms: _171  and  _172
REMARK   74  A    between atoms: _171  and  _174
REMARK   75  A    between atoms: _174  and  _175
REMARK   76  A    between atoms: _178  and  _180
REMARK   77  A    between atoms: _180  and  _181
REMARK   78  A    between atoms: _180  and  _183
REMARK   79  A    between atoms: _183  and  _184
REMARK   80  A    between atoms: _184  and  _185
REMARK   81  A    between atoms: _188  and  _190
REMARK   82  A    between atoms: _190  and  _191
REMARK   83  A    between atoms: _193  and  _195
REMARK   84  A    between atoms: _195  and  _196
REMARK   85  A    between atoms: _195  and  _198
REMARK   86  A    between atoms: _198  and  _199
REMARK   87  A    between atoms: _199  and  _200
REMARK   88  A    between atoms: _200  and  _201
REMARK   89  A    between atoms: _210  and  _212
REMARK   90  A    between atoms: _212  and  _213
REMARK   91  A    between atoms: _212  and  _215
REMARK   92  A    between atoms: _215  and  _216
REMARK   93  A    between atoms: _216  and  _217
REMARK   94  A    between atoms: _217  and  _218
REMARK   95  A    between atoms: _218  and  _219
REMARK   96  A    between atoms: _223  and  _225
REMARK   97  A    between atoms: _225  and  _226
REMARK   98  A    between atoms: _225  and  _228
REMARK   99  A    between atoms: _228  and  _229
REMARK  100  A    between atoms: _235  and  _237
REMARK  101  A    between atoms: _237  and  _238
REMARK  102  A    between atoms: _237  and  _240
REMARK  103  A    between atoms: _240  and  _241
REMARK  104  A    between atoms: _247  and  _249
REMARK  105  A    between atoms: _249  and  _250
REMARK  106  A    between atoms: _249  and  _252
REMARK  107  A    between atoms: _252  and  _253
REMARK  108  A    between atoms: _256  and  _258
REMARK  109  A    between atoms: _258  and  _259
REMARK  110  A    between atoms: _258  and  _261
REMARK  111  A    between atoms: _261  and  _262
REMARK  112  A    between atoms: _268  and  _270
REMARK  113  A    between atoms: _270  and  _271
REMARK  114  A    between atoms: _270  and  _273
REMARK  115  A    between atoms: _273  and  _274
REMARK  116  A    between atoms: _277  and  _279
REMARK  117  A    between atoms: _279  and  _280
REMARK  118  A    between atoms: _279  and  _282
REMARK  119  A    between atoms: _282  and  _283
REMARK  120  A    between atoms: _283  and  _284
REMARK  121  A    between atoms: _284  and  _285
REMARK  122  A    between atoms: _285  and  _286
REMARK  123  A    between atoms: _290  and  _292
REMARK  124  A    between atoms: _292  and  _293
REMARK  125  A    between atoms: _292  and  _295
REMARK  126  A    between atoms: _295  and  _296
REMARK  127  A    between atoms: _299  and  _301
REMARK  128  A    between atoms: _301  and  _302
REMARK  129  A    between atoms: _301  and  _304
REMARK  130  A    between atoms: _304  and  _305
REMARK  131  A    between atoms: _310  and  _312
REMARK  132  A    between atoms: _312  and  _313
REMARK  133  A    between atoms: _312  and  _315
REMARK  134  A    between atoms: _315  and  _316
REMARK  135  A    between atoms: _316  and  _317
REMARK  136  A    between atoms: _317  and  _318
REMARK  137  A    between atoms: _318  and  _319
REMARK  138  A    between atoms: _323  and  _325
REMARK  139  A    between atoms: _325  and  _326
REMARK  140  A    between atoms: _325  and  _328
REMARK  141  A    between atoms: _328  and  _329
REMARK  142  A    between atoms: _331  and  _333
REMARK  143  A    between atoms: _333  and  _334
REMARK  144  A    between atoms: _333  and  _336
REMARK  145  A    between atoms: _336  and  _337
REMARK  146  A    between atoms: _340  and  _342
REMARK  147  A    between atoms: _342  and  _343
REMARK  148  A    between atoms: _342  and  _345
REMARK  149  A    between atoms: _345  and  _346
REMARK  150  A    between atoms: _346  and  _347
REMARK  151  A    between atoms: _350  and  _352
REMARK  152  A    between atoms: _352  and  _353
REMARK  153  A    between atoms: _356  and  _357
REMARK  154  A    between atoms: _363  and  _364
REMARK  155  A    between atoms: _369  and  _371
REMARK  156  A    between atoms: _371  and  _372
REMARK  157  A    between atoms: _371  and  _374
REMARK  158  A    between atoms: _374  and  _375
REMARK  159  A    between atoms: _381  and  _383
REMARK  160  A    between atoms: _383  and  _384
REMARK  161  A    between atoms: _383  and  _386
REMARK  162  A    between atoms: _386  and  _387
REMARK  163  A    between atoms: _390  and  _392
REMARK  164  A    between atoms: _392  and  _393
REMARK  165  A    between atoms: _392  and  _395
REMARK  166  A    between atoms: _395  and  _396
REMARK  167  A    between atoms: _401  and  _403
REMARK  168  A    between atoms: _403  and  _404
REMARK  169  A    between atoms: _406  and  _408
REMARK  170  A    between atoms: _408  and  _409
REMARK  171  A    between atoms: _411  and  _413
REMARK  172  A    between atoms: _413  and  _414
REMARK  173  A    between atoms: _417  and  _419
REMARK  174  A    between atoms: _419  and  _420
REMARK  175  A    between atoms: _419  and  _422
REMARK  176  A    between atoms: _422  and  _423
REMARK  177  A    between atoms: _426  and  _428
REMARK  178  A    between atoms: _428  and  _429
REMARK  179  A    between atoms: _432  and  _434
REMARK  180  A    between atoms: _434  and  _435
REMARK  181  A    between atoms: _434  and  _437
REMARK  182  A    between atoms: _437  and  _438
REMARK  183  A    between atoms: _443  and  _445
REMARK  184  A    between atoms: _445  and  _446
REMARK  185  A    between atoms: _445  and  _448
REMARK  186  A    between atoms: _448  and  _449
REMARK  187  A    between atoms: _452  and  _454
REMARK  188  A    between atoms: _454  and  _455
REMARK  189  A    between atoms: _454  and  _457
REMARK  190  A    between atoms: _457  and  _458
REMARK  191  A    between atoms: _463  and  _465
REMARK  192  A    between atoms: _465  and  _466
REMARK  193  A    between atoms: _465  and  _468
REMARK  194  A    between atoms: _468  and  _469
REMARK  195  A    between atoms: _474  and  _475
REMARK  196  A    between atoms: _477  and  _479
REMARK  197  A    between atoms: _479  and  _480
REMARK  198  A    between atoms: _479  and  _482
REMARK  199  A    between atoms: _482  and  _483
REMARK  200  A    between atoms: _483  and  _484
REMARK  201  A    between atoms: _484  and  _485
REMARK  202  A    between atoms: _485  and  _486
REMARK  203  A    between atoms: _490  and  _492
REMARK  204  A    between atoms: _492  and  _493
REMARK  205  A    between atoms: _492  and  _495
REMARK  206  A    between atoms: _495  and  _496
REMARK  207  A    between atoms: _496  and  _497
REMARK  208  A    between atoms: _497  and  _498
REMARK  209  A    between atoms: _508  and  _509
REMARK  210  A    between atoms: _514  and  _516
REMARK  211  A    between atoms: _516  and  _517
REMARK  212  A    between atoms: _516  and  _519
REMARK  213  A    between atoms: _519  and  _520
REMARK  214  A    between atoms: _524  and  _525
REMARK  215  A    between atoms: _530  and  _532
REMARK  216  A    between atoms: _532  and  _533
REMARK  217  A    between atoms: _532  and  _535
REMARK  218  A    between atoms: _535  and  _536
REMARK  219  A    between atoms: _539  and  _541
REMARK  220  A    between atoms: _541  and  _542
REMARK  221  A    between atoms: _541  and  _544
REMARK  222  A    between atoms: _544  and  _545
REMARK  223  A    between atoms: _550  and  _551
REMARK  224  A    between atoms: _553  and  _555
REMARK  225  A    between atoms: _555  and  _556
REMARK  226  A    between atoms: _555  and  _558
REMARK  227  A    between atoms: _558  and  _559
REMARK  228  A    between atoms: _561  and  _563
REMARK  229  A    between atoms: _563  and  _564
REMARK  230  A    between atoms: _563  and  _566
REMARK  231  A    between atoms: _566  and  _567
REMARK  232  A    between atoms: _567  and  _568
REMARK                            x       y       z     vdW  Elec       q    Type
REMARK                         _______ _______ _______ _____ _____    ______ ____
ROOT
ATOM      1  O   HOH     1      25.027  64.294  27.996  0.00  0.00    +0.000 OA
ENDROOT
TORSDOF 0
REMARK  Name = ../refined-set-2016/4gah/4gah_pocket.pdb
REMARK  232 active torsions:
REMARK  status: ('A' for Active; 'I' for Inactive)
REMARK    1  A    between atoms: _1  and  _3
REMARK    2  A    between atoms: _3  and  _4
REMARK    3  A    between atoms: _3  and  _6
REMARK    4  A    between atoms: _6  and  _7
REMARK    5  A    between atoms: _7  and  _8
REMARK    6  A    between atoms: _8  and  _9
REMARK    7  A    between atoms: _18  and  _20
REMARK    8  A    between atoms: _20  and  _21
REMARK    9  A    between atoms: _20  and  _23
REMARK   10  A    between atoms: _23  and  _24
REMARK   11  A    between atoms: _27  and  _29
REMARK   12  A    between atoms: _29  and  _30
REMARK   13  A    between atoms: _29  and  _32
REMARK   14  A    between atoms: _32  and  _33
REMARK   15  A    between atoms: _39  and  _41
REMARK   16  A    between atoms: _41  and  _42
REMARK   17  A    between atoms: _41  and  _44
REMARK   18  A    between atoms: _44  and  _45
REMARK   19  A    between atoms: _48  and  _50
REMARK   20  A    between atoms: _50  and  _51
REMARK   21  A    between atoms: _50  and  _53
REMARK   22  A    between atoms: _53  and  _54
REMARK   23  A    between atoms: _57  and  _59
REMARK   24  A    between atoms: _59  and  _60
REMARK   25  A    between atoms: _59  and  _62
REMARK   26  A    between atoms: _62  and  _63
REMARK   27  A    between atoms: _66  and  _68
REMARK   28  A    between atoms: _68  and  _69
REMARK   29  A    between atoms: _72  and  _74
REMARK   30  A    between atoms: _74  and  _75
REMARK   31  A    between atoms: _74  and  _77
REMARK   32  A    between atoms: _77  and  _78
REMARK   33  A    between atoms: _81  and  _83
REMARK   34  A    between atoms: _83  and  _84
REMARK   35  A    between atoms: _83  and  _86
REMARK   36  A    between atoms: _89  and  _91
REMARK   37  A    between atoms: _91  and  _92
REMARK   38  A    between atoms: _94  and  _96
REMARK   39  A    between atoms: _96  and  _97
REMARK   40  A    between atoms: _96  and  _99
REMARK   41  A    between atoms: _99  and  _100
REMARK   42  A    between atoms: _100  and  _101
REMARK   43  A    between atoms: _103  and  _105
REMARK   44  A    between atoms: _105  and  _106
REMARK   45  A    between atoms: _105  and  _108
REMARK   46  A    between atoms: _108  and  _109
REMARK   47  A    between atoms: _109  and  _110
REMARK   48  A    between atoms: _112  and  _114
REMARK   49  A    between atoms: _114  and  _115
REMARK   50  A    between atoms: _117  and  _119
REMARK   51  A    between atoms: _119  and  _120
REMARK   52  A    between atoms: _119  and  _122
REMARK   53  A    between atoms: _122  and  _123
REMARK   54  A    between atoms: _126  and  _128
REMARK   55  A    between atoms: _128  and  _129
REMARK   56  A    between atoms: _128  and  _131
REMARK   57  A    between atoms: _134  and  _136
REMARK   58  A    between atoms: _136  and  _137
REMARK   59  A    between atoms: _136  and  _139
REMARK   60  A    between atoms: _139  and  _140
REMARK   61  A    between atoms: _140  and  _141
REMARK   62  A    between atoms: _143  and  _145
REMARK   63  A    between atoms: _145  and  _146
REMARK   64  A    between atoms: _145  and  _148
REMARK   65  A    between atoms: _148  and  _149
REMARK   66  A    between atoms: _152  and  _154
REMARK   67  A    between atoms: _154  and  _155
REMARK   68  A    between atoms: _158  and  _160
REMARK   69  A    between atoms: _160  and  _161
REMARK   70  A    between atoms: _160  and  _163
REMARK   71  A    between atoms: _163  and  _164
REMARK   72  A    between atoms: _169  and  _171
REMARK   73  A    between atoms: _171  and  _172
REMARK   74  A    between atoms: _171  and  _174
REMARK   75  A    between atoms: _174  and  _175
REMARK   76  A    between atoms: _178  and  _180
REMARK   77  A    between atoms: _180  and  _181
REMARK   78  A    between atoms: _180  and  _183
REMARK   79  A    between atoms: _183  and  _184
REMARK   80  A    between atoms: _184  and  _185
REMARK   81  A    between atoms: _188  and  _190
REMARK   82  A    between atoms: _190  and  _191
REMARK   83  A    between atoms: _193  and  _195
REMARK   84  A    between atoms: _195  and  _196
REMARK   85  A    between atoms: _195  and  _198
REMARK   86  A    between atoms: _198  and  _199
REMARK   87  A    between atoms: _199  and  _200
REMARK   88  A    between atoms: _200  and  _201
REMARK   89  A    between atoms: _210  and  _212
REMARK   90  A    between atoms: _212  and  _213
REMARK   91  A    between atoms: _212  and  _215
REMARK   92  A    between atoms: _215  and  _216
REMARK   93  A    between atoms: _216  and  _217
REMARK   94  A    between atoms: _217  and  _218
REMARK   95  A    between atoms: _218  and  _219
REMARK   96  A    between atoms: _223  and  _225
REMARK   97  A    between atoms: _225  and  _226
REMARK   98  A    between atoms: _225  and  _228
REMARK   99  A    between atoms: _228  and  _229
REMARK  100  A    between atoms: _235  and  _237
REMARK  101  A    between atoms: _237  and  _238
REMARK  102  A    between atoms: _237  and  _240
REMARK  103  A    between atoms: _240  and  _241
REMARK  104  A    between atoms: _247  and  _249
REMARK  105  A    between atoms: _249  and  _250
REMARK  106  A    between atoms: _249  and  _252
REMARK  107  A    between atoms: _252  and  _253
REMARK  108  A    between atoms: _256  and  _258
REMARK  109  A    between atoms: _258  and  _259
REMARK  110  A    between atoms: _258  and  _261
REMARK  111  A    between atoms: _261  and  _262
REMARK  112  A    between atoms: _268  and  _270
REMARK  113  A    between atoms: _270  and  _271
REMARK  114  A    between atoms: _270  and  _273
REMARK  115  A    between atoms: _273  and  _274
REMARK  116  A    between atoms: _277  and  _279
REMARK  117  A    between atoms: _279  and  _280
REMARK  118  A    between atoms: _279  and  _282
REMARK  119  A    between atoms: _282  and  _283
REMARK  120  A    between atoms: _283  and  _284
REMARK  121  A    between atoms: _284  and  _285
REMARK  122  A    between atoms: _285  and  _286
REMARK  123  A    between atoms: _290  and  _292
REMARK  124  A    between atoms: _292  and  _293
REMARK  125  A    between atoms: _292  and  _295
REMARK  126  A    between atoms: _295  and  _296
REMARK  127  A    between atoms: _299  and  _301
REMARK  128  A    between atoms: _301  and  _302
REMARK  129  A    between atoms: _301  and  _304
REMARK  130  A    between atoms: _304  and  _305
REMARK  131  A    between atoms: _310  and  _312
REMARK  132  A    between atoms: _312  and  _313
REMARK  133  A    between atoms: _312  and  _315
REMARK  134  A    between atoms: _315  and  _316
REMARK  135  A    between atoms: _316  and  _317
REMARK  136  A    between atoms: _317  and  _318
REMARK  137  A    between atoms: _318  and  _319
REMARK  138  A    between atoms: _323  and  _325
REMARK  139  A    between atoms: _325  and  _326
REMARK  140  A    between atoms: _325  and  _328
REMARK  141  A    between atoms: _328  and  _329
REMARK  142  A    between atoms: _331  and  _333
REMARK  143  A    between atoms: _333  and  _334
REMARK  144  A    between atoms: _333  and  _336
REMARK  145  A    between atoms: _336  and  _337
REMARK  146  A    between atoms: _340  and  _342
REMARK  147  A    between atoms: _342  and  _343
REMARK  148  A    between atoms: _342  and  _345
REMARK  149  A    between atoms: _345  and  _346
REMARK  150  A    between atoms: _346  and  _347
REMARK  151  A    between atoms: _350  and  _352
REMARK  152  A    between atoms: _352  and  _353
REMARK  153  A    between atoms: _356  and  _357
REMARK  154  A    between atoms: _363  and  _364
REMARK  155  A    between atoms: _369  and  _371
REMARK  156  A    between atoms: _371  and  _372
REMARK  157  A    between atoms: _371  and  _374
REMARK  158  A    between atoms: _374  and  _375
REMARK  159  A    between atoms: _381  and  _383
REMARK  160  A    between atoms: _383  and  _384
REMARK  161  A    between atoms: _383  and  _386
REMARK  162  A    between atoms: _386  and  _387
REMARK  163  A    between atoms: _390  and  _392
REMARK  164  A    between atoms: _392  and  _393
REMARK  165  A    between atoms: _392  and  _395
REMARK  166  A    between atoms: _395  and  _396
REMARK  167  A    between atoms: _401  and  _403
REMARK  168  A    between atoms: _403  and  _404
REMARK  169  A    between atoms: _406  and  _408
REMARK  170  A    between atoms: _408  and  _409
REMARK  171  A    between atoms: _411  and  _413
REMARK  172  A    between atoms: _413  and  _414
REMARK  173  A    between atoms: _417  and  _419
REMARK  174  A    between atoms: _419  and  _420
REMARK  175  A    between atoms: _419  and  _422
REMARK  176  A    between atoms: _422  and  _423
REMARK  177  A    between atoms: _426  and  _428
REMARK  178  A    between atoms: _428  and  _429
REMARK  179  A    between atoms: _432  and  _434
REMARK  180  A    between atoms: _434  and  _435
REMARK  181  A    between atoms: _434  and  _437
REMARK  182  A    between atoms: _437  and  _438
REMARK  183  A    between atoms: _443  and  _445
REMARK  184  A    between atoms: _445  and  _446
REMARK  185  A    between atoms: _445  and  _448
REMARK  186  A    between atoms: _448  and  _449
REMARK  187  A    between atoms: _452  and  _454
REMARK  188  A    between atoms: _454  and  _455
REMARK  189  A    between atoms: _454  and  _457
REMARK  190  A    between atoms: _457  and  _458
REMARK  191  A    between atoms: _463  and  _465
REMARK  192  A    between atoms: _465  and  _466
REMARK  193  A    between atoms: _465  and  _468
REMARK  194  A    between atoms: _468  and  _469
REMARK  195  A    between atoms: _474  and  _475
REMARK  196  A    between atoms: _477  and  _479
REMARK  197  A    between atoms: _479  and  _480
REMARK  198  A    between atoms: _479  and  _482
REMARK  199  A    between atoms: _482  and  _483
REMARK  200  A    between atoms: _483  and  _484
REMARK  201  A    between atoms: _484  and  _485
REMARK  202  A    between atoms: _485  and  _486
REMARK  203  A    between atoms: _490  and  _492
REMARK  204  A    between atoms: _492  and  _493
REMARK  205  A    between atoms: _492  and  _495
REMARK  206  A    between atoms: _495  and  _496
REMARK  207  A    between atoms: _496  and  _497
REMARK  208  A    between atoms: _497  and  _498
REMARK  209  A    between atoms: _508  and  _509
REMARK  210  A    between atoms: _514  and  _516
REMARK  211  A    between atoms: _516  and  _517
REMARK  212  A    between atoms: _516  and  _519
REMARK  213  A    between atoms: _519  and  _520
REMARK  214  A    between atoms: _524  and  _525
REMARK  215  A    between atoms: _530  and  _532
REMARK  216  A    between atoms: _532  and  _533
REMARK  217  A    between atoms: _532  and  _535
REMARK  218  A    between atoms: _535  and  _536
REMARK  219  A    between atoms: _539  and  _541
REMARK  220  A    between atoms: _541  and  _542
REMARK  221  A    between atoms: _541  and  _544
REMARK  222  A    between atoms: _544  and  _545
REMARK  223  A    between atoms: _550  and  _551
REMARK  224  A    between atoms: _553  and  _555
REMARK  225  A    between atoms: _555  and  _556
REMARK  226  A    between atoms: _555  and  _558
REMARK  227  A    between atoms: _558  and  _559
REMARK  228  A    between atoms: _561  and  _563
REMARK  229  A    between atoms: _563  and  _564
REMARK  230  A    between atoms: _563  and  _566
REMARK  231  A    between atoms: _566  and  _567
REMARK  232  A    between atoms: _567  and  _568
REMARK                            x       y       z     vdW  Elec       q    Type
REMARK                         _______ _______ _______ _____ _____    ______ ____
ROOT
ATOM      1  O   HOH     1      18.121  77.070  44.405  0.00  0.00    +0.000 OA
ENDROOT
TORSDOF 0
REMARK  Name = ../refined-set-2016/4gah/4gah_pocket.pdb
REMARK  232 active torsions:
REMARK  status: ('A' for Active; 'I' for Inactive)
REMARK    1  A    between atoms: _1  and  _3
REMARK    2  A    between atoms: _3  and  _4
REMARK    3  A    between atoms: _3  and  _6
REMARK    4  A    between atoms: _6  and  _7
REMARK    5  A    between atoms: _7  and  _8
REMARK    6  A    between atoms: _8  and  _9
REMARK    7  A    between atoms: _18  and  _20
REMARK    8  A    between atoms: _20  and  _21
REMARK    9  A    between atoms: _20  and  _23
REMARK   10  A    between atoms: _23  and  _24
REMARK   11  A    between atoms: _27  and  _29
REMARK   12  A    between atoms: _29  and  _30
REMARK   13  A    between atoms: _29  and  _32
REMARK   14  A    between atoms: _32  and  _33
REMARK   15  A    between atoms: _39  and  _41
REMARK   16  A    between atoms: _41  and  _42
REMARK   17  A    between atoms: _41  and  _44
REMARK   18  A    between atoms: _44  and  _45
REMARK   19  A    between atoms: _48  and  _50
REMARK   20  A    between atoms: _50  and  _51
REMARK   21  A    between atoms: _50  and  _53
REMARK   22  A    between atoms: _53  and  _54
REMARK   23  A    between atoms: _57  and  _59
REMARK   24  A    between atoms: _59  and  _60
REMARK   25  A    between atoms: _59  and  _62
REMARK   26  A    between atoms: _62  and  _63
REMARK   27  A    between atoms: _66  and  _68
REMARK   28  A    between atoms: _68  and  _69
REMARK   29  A    between atoms: _72  and  _74
REMARK   30  A    between atoms: _74  and  _75
REMARK   31  A    between atoms: _74  and  _77
REMARK   32  A    between atoms: _77  and  _78
REMARK   33  A    between atoms: _81  and  _83
REMARK   34  A    between atoms: _83  and  _84
REMARK   35  A    between atoms: _83  and  _86
REMARK   36  A    between atoms: _89  and  _91
REMARK   37  A    between atoms: _91  and  _92
REMARK   38  A    between atoms: _94  and  _96
REMARK   39  A    between atoms: _96  and  _97
REMARK   40  A    between atoms: _96  and  _99
REMARK   41  A    between atoms: _99  and  _100
REMARK   42  A    between atoms: _100  and  _101
REMARK   43  A    between atoms: _103  and  _105
REMARK   44  A    between atoms: _105  and  _106
REMARK   45  A    between atoms: _105  and  _108
REMARK   46  A    between atoms: _108  and  _109
REMARK   47  A    between atoms: _109  and  _110
REMARK   48  A    between atoms: _112  and  _114
REMARK   49  A    between atoms: _114  and  _115
REMARK   50  A    between atoms: _117  and  _119
REMARK   51  A    between atoms: _119  and  _120
REMARK   52  A    between atoms: _119  and  _122
REMARK   53  A    between atoms: _122  and  _123
REMARK   54  A    between atoms: _126  and  _128
REMARK   55  A    between atoms: _128  and  _129
REMARK   56  A    between atoms: _128  and  _131
REMARK   57  A    between atoms: _134  and  _136
REMARK   58  A    between atoms: _136  and  _137
REMARK   59  A    between atoms: _136  and  _139
REMARK   60  A    between atoms: _139  and  _140
REMARK   61  A    between atoms: _140  and  _141
REMARK   62  A    between atoms: _143  and  _145
REMARK   63  A    between atoms: _145  and  _146
REMARK   64  A    between atoms: _145  and  _148
REMARK   65  A    between atoms: _148  and  _149
REMARK   66  A    between atoms: _152  and  _154
REMARK   67  A    between atoms: _154  and  _155
REMARK   68  A    between atoms: _158  and  _160
REMARK   69  A    between atoms: _160  and  _161
REMARK   70  A    between atoms: _160  and  _163
REMARK   71  A    between atoms: _163  and  _164
REMARK   72  A    between atoms: _169  and  _171
REMARK   73  A    between atoms: _171  and  _172
REMARK   74  A    between atoms: _171  and  _174
REMARK   75  A    between atoms: _174  and  _175
REMARK   76  A    between atoms: _178  and  _180
REMARK   77  A    between atoms: _180  and  _181
REMARK   78  A    between atoms: _180  and  _183
REMARK   79  A    between atoms: _183  and  _184
REMARK   80  A    between atoms: _184  and  _185
REMARK   81  A    between atoms: _188  and  _190
REMARK   82  A    between atoms: _190  and  _191
REMARK   83  A    between atoms: _193  and  _195
REMARK   84  A    between atoms: _195  and  _196
REMARK   85  A    between atoms: _195  and  _198
REMARK   86  A    between atoms: _198  and  _199
REMARK   87  A    between atoms: _199  and  _200
REMARK   88  A    between atoms: _200  and  _201
REMARK   89  A    between atoms: _210  and  _212
REMARK   90  A    between atoms: _212  and  _213
REMARK   91  A    between atoms: _212  and  _215
REMARK   92  A    between atoms: _215  and  _216
REMARK   93  A    between atoms: _216  and  _217
REMARK   94  A    between atoms: _217  and  _218
REMARK   95  A    between atoms: _218  and  _219
REMARK   96  A    between atoms: _223  and  _225
REMARK   97  A    between atoms: _225  and  _226
REMARK   98  A    between atoms: _225  and  _228
REMARK   99  A    between atoms: _228  and  _229
REMARK  100  A    between atoms: _235  and  _237
REMARK  101  A    between atoms: _237  and  _238
REMARK  102  A    between atoms: _237  and  _240
REMARK  103  A    between atoms: _240  and  _241
REMARK  104  A    between atoms: _247  and  _249
REMARK  105  A    between atoms: _249  and  _250
REMARK  106  A    between atoms: _249  and  _252
REMARK  107  A    between atoms: _252  and  _253
REMARK  108  A    between atoms: _256  and  _258
REMARK  109  A    between atoms: _258  and  _259
REMARK  110  A    between atoms: _258  and  _261
REMARK  111  A    between atoms: _261  and  _262
REMARK  112  A    between atoms: _268  and  _270
REMARK  113  A    between atoms: _270  and  _271
REMARK  114  A    between atoms: _270  and  _273
REMARK  115  A    between atoms: _273  and  _274
REMARK  116  A    between atoms: _277  and  _279
REMARK  117  A    between atoms: _279  and  _280
REMARK  118  A    between atoms: _279  and  _282
REMARK  119  A    between atoms: _282  and  _283
REMARK  120  A    between atoms: _283  and  _284
REMARK  121  A    between atoms: _284  and  _285
REMARK  122  A    between atoms: _285  and  _286
REMARK  123  A    between atoms: _290  and  _292
REMARK  124  A    between atoms: _292  and  _293
REMARK  125  A    between atoms: _292  and  _295
REMARK  126  A    between atoms: _295  and  _296
REMARK  127  A    between atoms: _299  and  _301
REMARK  128  A    between atoms: _301  and  _302
REMARK  129  A    between atoms: _301  and  _304
REMARK  130  A    between atoms: _304  and  _305
REMARK  131  A    between atoms: _310  and  _312
REMARK  132  A    between atoms: _312  and  _313
REMARK  133  A    between atoms: _312  and  _315
REMARK  134  A    between atoms: _315  and  _316
REMARK  135  A    between atoms: _316  and  _317
REMARK  136  A    between atoms: _317  and  _318
REMARK  137  A    between atoms: _318  and  _319
REMARK  138  A    between atoms: _323  and  _325
REMARK  139  A    between atoms: _325  and  _326
REMARK  140  A    between atoms: _325  and  _328
REMARK  141  A    between atoms: _328  and  _329
REMARK  142  A    between atoms: _331  and  _333
REMARK  143  A    between atoms: _333  and  _334
REMARK  144  A    between atoms: _333  and  _336
REMARK  145  A    between atoms: _336  and  _337
REMARK  146  A    between atoms: _340  and  _342
REMARK  147  A    between atoms: _342  and  _343
REMARK  148  A    between atoms: _342  and  _345
REMARK  149  A    between atoms: _345  and  _346
REMARK  150  A    between atoms: _346  and  _347
REMARK  151  A    between atoms: _350  and  _352
REMARK  152  A    between atoms: _352  and  _353
REMARK  153  A    between atoms: _356  and  _357
REMARK  154  A    between atoms: _363  and  _364
REMARK  155  A    between atoms: _369  and  _371
REMARK  156  A    between atoms: _371  and  _372
REMARK  157  A    between atoms: _371  and  _374
REMARK  158  A    between atoms: _374  and  _375
REMARK  159  A    between atoms: _381  and  _383
REMARK  160  A    between atoms: _383  and  _384
REMARK  161  A    between atoms: _383  and  _386
REMARK  162  A    between atoms: _386  and  _387
REMARK  163  A    between atoms: _390  and  _392
REMARK  164  A    between atoms: _392  and  _393
REMARK  165  A    between atoms: _392  and  _395
REMARK  166  A    between atoms: _395  and  _396
REMARK  167  A    between atoms: _401  and  _403
REMARK  168  A    between atoms: _403  and  _404
REMARK  169  A    between atoms: _406  and  _408
REMARK  170  A    between atoms: _408  and  _409
REMARK  171  A    between atoms: _411  and  _413
REMARK  172  A    between atoms: _413  and  _414
REMARK  173  A    between atoms: _417  and  _419
REMARK  174  A    between atoms: _419  and  _420
REMARK  175  A    between atoms: _419  and  _422
REMARK  176  A    between atoms: _422  and  _423
REMARK  177  A    between atoms: _426  and  _428
REMARK  178  A    between atoms: _428  and  _429
REMARK  179  A    between atoms: _432  and  _434
REMARK  180  A    between atoms: _434  and  _435
REMARK  181  A    between atoms: _434  and  _437
REMARK  182  A    between atoms: _437  and  _438
REMARK  183  A    between atoms: _443  and  _445
REMARK  184  A    between atoms: _445  and  _446
REMARK  185  A    between atoms: _445  and  _448
REMARK  186  A    between atoms: _448  and  _449
REMARK  187  A    between atoms: _452  and  _454
REMARK  188  A    between atoms: _454  and  _455
REMARK  189  A    between atoms: _454  and  _457
REMARK  190  A    between atoms: _457  and  _458
REMARK  191  A    between atoms: _463  and  _465
REMARK  192  A    between atoms: _465  and  _466
REMARK  193  A    between atoms: _465  and  _468
REMARK  194  A    between atoms: _468  and  _469
REMARK  195  A    between atoms: _474  and  _475
REMARK  196  A    between atoms: _477  and  _479
REMARK  197  A    between atoms: _479  and  _480
REMARK  198  A    between atoms: _479  and  _482
REMARK  199  A    between atoms: _482  and  _483
REMARK  200  A    between atoms: _483  and  _484
REMARK  201  A    between atoms: _484  and  _485
REMARK  202  A    between atoms: _485  and  _486
REMARK  203  A    between atoms: _490  and  _492
REMARK  204  A    between atoms: _492  and  _493
REMARK  205  A    between atoms: _492  and  _495
REMARK  206  A    between atoms: _495  and  _496
REMARK  207  A    between atoms: _496  and  _497
REMARK  208  A    between atoms: _497  and  _498
REMARK  209  A    between atoms: _508  and  _509
REMARK  210  A    between atoms: _514  and  _516
REMARK  211  A    between atoms: _516  and  _517
REMARK  212  A    between atoms: _516  and  _519
REMARK  213  A    between atoms: _519  and  _520
REMARK  214  A    between atoms: _524  and  _525
REMARK  215  A    between atoms: _530  and  _532
REMARK  216  A    between atoms: _532  and  _533
REMARK  217  A    between atoms: _532  and  _535
REMARK  218  A    between atoms: _535  and  _536
REMARK  219  A    between atoms: _539  and  _541
REMARK  220  A    between atoms: _541  and  _542
REMARK  221  A    between atoms: _541  and  _544
REMARK  222  A    between atoms: _544  and  _545
REMARK  223  A    between atoms: _550  and  _551
REMARK  224  A    between atoms: _553  and  _555
REMARK  225  A    between atoms: _555  and  _556
REMARK  226  A    between atoms: _555  and  _558
REMARK  227  A    between atoms: _558  and  _559
REMARK  228  A    between atoms: _561  and  _563
REMARK  229  A    between atoms: _563  and  _564
REMARK  230  A    between atoms: _563  and  _566
REMARK  231  A    between atoms: _566  and  _567
REMARK  232  A    between atoms: _567  and  _568
REMARK                            x       y       z     vdW  Elec       q    Type
REMARK                         _______ _______ _______ _____ _____    ______ ____
ROOT
ATOM      1  O   HOH     1      35.557  64.592  28.160  0.00  0.00    +0.000 OA
ENDROOT
TORSDOF 0
REMARK  Name = ../refined-set-2016/4gah/4gah_pocket.pdb
REMARK  232 active torsions:
REMARK  status: ('A' for Active; 'I' for Inactive)
REMARK    1  A    between atoms: _1  and  _3
REMARK    2  A    between atoms: _3  and  _4
REMARK    3  A    between atoms: _3  and  _6
REMARK    4  A    between atoms: _6  and  _7
REMARK    5  A    between atoms: _7  and  _8
REMARK    6  A    between atoms: _8  and  _9
REMARK    7  A    between atoms: _18  and  _20
REMARK    8  A    between atoms: _20  and  _21
REMARK    9  A    between atoms: _20  and  _23
REMARK   10  A    between atoms: _23  and  _24
REMARK   11  A    between atoms: _27  and  _29
REMARK   12  A    between atoms: _29  and  _30
REMARK   13  A    between atoms: _29  and  _32
REMARK   14  A    between atoms: _32  and  _33
REMARK   15  A    between atoms: _39  and  _41
REMARK   16  A    between atoms: _41  and  _42
REMARK   17  A    between atoms: _41  and  _44
REMARK   18  A    between atoms: _44  and  _45
REMARK   19  A    between atoms: _48  and  _50
REMARK   20  A    between atoms: _50  and  _51
REMARK   21  A    between atoms: _50  and  _53
REMARK   22  A    between atoms: _53  and  _54
REMARK   23  A    between atoms: _57  and  _59
REMARK   24  A    between atoms: _59  and  _60
REMARK   25  A    between atoms: _59  and  _62
REMARK   26  A    between atoms: _62  and  _63
REMARK   27  A    between atoms: _66  and  _68
REMARK   28  A    between atoms: _68  and  _69
REMARK   29  A    between atoms: _72  and  _74
REMARK   30  A    between atoms: _74  and  _75
REMARK   31  A    between atoms: _74  and  _77
REMARK   32  A    between atoms: _77  and  _78
REMARK   33  A    between atoms: _81  and  _83
REMARK   34  A    between atoms: _83  and  _84
REMARK   35  A    between atoms: _83  and  _86
REMARK   36  A    between atoms: _89  and  _91
REMARK   37  A    between atoms: _91  and  _92
REMARK   38  A    between atoms: _94  and  _96
REMARK   39  A    between atoms: _96  and  _97
REMARK   40  A    between atoms: _96  and  _99
REMARK   41  A    between atoms: _99  and  _100
REMARK   42  A    between atoms: _100  and  _101
REMARK   43  A    between atoms: _103  and  _105
REMARK   44  A    between atoms: _105  and  _106
REMARK   45  A    between atoms: _105  and  _108
REMARK   46  A    between atoms: _108  and  _109
REMARK   47  A    between atoms: _109  and  _110
REMARK   48  A    between atoms: _112  and  _114
REMARK   49  A    between atoms: _114  and  _115
REMARK   50  A    between atoms: _117  and  _119
REMARK   51  A    between atoms: _119  and  _120
REMARK   52  A    between atoms: _119  and  _122
REMARK   53  A    between atoms: _122  and  _123
REMARK   54  A    between atoms: _126  and  _128
REMARK   55  A    between atoms: _128  and  _129
REMARK   56  A    between atoms: _128  and  _131
REMARK   57  A    between atoms: _134  and  _136
REMARK   58  A    between atoms: _136  and  _137
REMARK   59  A    between atoms: _136  and  _139
REMARK   60  A    between atoms: _139  and  _140
REMARK   61  A    between atoms: _140  and  _141
REMARK   62  A    between atoms: _143  and  _145
REMARK   63  A    between atoms: _145  and  _146
REMARK   64  A    between atoms: _145  and  _148
REMARK   65  A    between atoms: _148  and  _149
REMARK   66  A    between atoms: _152  and  _154
REMARK   67  A    between atoms: _154  and  _155
REMARK   68  A    between atoms: _158  and  _160
REMARK   69  A    between atoms: _160  and  _161
REMARK   70  A    between atoms: _160  and  _163
REMARK   71  A    between atoms: _163  and  _164
REMARK   72  A    between atoms: _169  and  _171
REMARK   73  A    between atoms: _171  and  _172
REMARK   74  A    between atoms: _171  and  _174
REMARK   75  A    between atoms: _174  and  _175
REMARK   76  A    between atoms: _178  and  _180
REMARK   77  A    between atoms: _180  and  _181
REMARK   78  A    between atoms: _180  and  _183
REMARK   79  A    between atoms: _183  and  _184
REMARK   80  A    between atoms: _184  and  _185
REMARK   81  A    between atoms: _188  and  _190
REMARK   82  A    between atoms: _190  and  _191
REMARK   83  A    between atoms: _193  and  _195
REMARK   84  A    between atoms: _195  and  _196
REMARK   85  A    between atoms: _195  and  _198
REMARK   86  A    between atoms: _198  and  _199
REMARK   87  A    between atoms: _199  and  _200
REMARK   88  A    between atoms: _200  and  _201
REMARK   89  A    between atoms: _210  and  _212
REMARK   90  A    between atoms: _212  and  _213
REMARK   91  A    between atoms: _212  and  _215
REMARK   92  A    between atoms: _215  and  _216
REMARK   93  A    between atoms: _216  and  _217
REMARK   94  A    between atoms: _217  and  _218
REMARK   95  A    between atoms: _218  and  _219
REMARK   96  A    between atoms: _223  and  _225
REMARK   97  A    between atoms: _225  and  _226
REMARK   98  A    between atoms: _225  and  _228
REMARK   99  A    between atoms: _228  and  _229
REMARK  100  A    between atoms: _235  and  _237
REMARK  101  A    between atoms: _237  and  _238
REMARK  102  A    between atoms: _237  and  _240
REMARK  103  A    between atoms: _240  and  _241
REMARK  104  A    between atoms: _247  and  _249
REMARK  105  A    between atoms: _249  and  _250
REMARK  106  A    between atoms: _249  and  _252
REMARK  107  A    between atoms: _252  and  _253
REMARK  108  A    between atoms: _256  and  _258
REMARK  109  A    between atoms: _258  and  _259
REMARK  110  A    between atoms: _258  and  _261
REMARK  111  A    between atoms: _261  and  _262
REMARK  112  A    between atoms: _268  and  _270
REMARK  113  A    between atoms: _270  and  _271
REMARK  114  A    between atoms: _270  and  _273
REMARK  115  A    between atoms: _273  and  _274
REMARK  116  A    between atoms: _277  and  _279
REMARK  117  A    between atoms: _279  and  _280
REMARK  118  A    between atoms: _279  and  _282
REMARK  119  A    between atoms: _282  and  _283
REMARK  120  A    between atoms: _283  and  _284
REMARK  121  A    between atoms: _284  and  _285
REMARK  122  A    between atoms: _285  and  _286
REMARK  123  A    between atoms: _290  and  _292
REMARK  124  A    between atoms: _292  and  _293
REMARK  125  A    between atoms: _292  and  _295
REMARK  126  A    between atoms: _295  and  _296
REMARK  127  A    between atoms: _299  and  _301
REMARK  128  A    between atoms: _301  and  _302
REMARK  129  A    between atoms: _301  and  _304
REMARK  130  A    between atoms: _304  and  _305
REMARK  131  A    between atoms: _310  and  _312
REMARK  132  A    between atoms: _312  and  _313
REMARK  133  A    between atoms: _312  and  _315
REMARK  134  A    between atoms: _315  and  _316
REMARK  135  A    between atoms: _316  and  _317
REMARK  136  A    between atoms: _317  and  _318
REMARK  137  A    between atoms: _318  and  _319
REMARK  138  A    between atoms: _323  and  _325
REMARK  139  A    between atoms: _325  and  _326
REMARK  140  A    between atoms: _325  and  _328
REMARK  141  A    between atoms: _328  and  _329
REMARK  142  A    between atoms: _331  and  _333
REMARK  143  A    between atoms: _333  and  _334
REMARK  144  A    between atoms: _333  and  _336
REMARK  145  A    between atoms: _336  and  _337
REMARK  146  A    between atoms: _340  and  _342
REMARK  147  A    between atoms: _342  and  _343
REMARK  148  A    between atoms: _342  and  _345
REMARK  149  A    between atoms: _345  and  _346
REMARK  150  A    between atoms: _346  and  _347
REMARK  151  A    between atoms: _350  and  _352
REMARK  152  A    between atoms: _352  and  _353
REMARK  153  A    between atoms: _356  and  _357
REMARK  154  A    between atoms: _363  and  _364
REMARK  155  A    between atoms: _369  and  _371
REMARK  156  A    between atoms: _371  and  _372
REMARK  157  A    between atoms: _371  and  _374
REMARK  158  A    between atoms: _374  and  _375
REMARK  159  A    between atoms: _381  and  _383
REMARK  160  A    between atoms: _383  and  _384
REMARK  161  A    between atoms: _383  and  _386
REMARK  162  A    between atoms: _386  and  _387
REMARK  163  A    between atoms: _390  and  _392
REMARK  164  A    between atoms: _392  and  _393
REMARK  165  A    between atoms: _392  and  _395
REMARK  166  A    between atoms: _395  and  _396
REMARK  167  A    between atoms: _401  and  _403
REMARK  168  A    between atoms: _403  and  _404
REMARK  169  A    between atoms: _406  and  _408
REMARK  170  A    between atoms: _408  and  _409
REMARK  171  A    between atoms: _411  and  _413
REMARK  172  A    between atoms: _413  and  _414
REMARK  173  A    between atoms: _417  and  _419
REMARK  174  A    between atoms: _419  and  _420
REMARK  175  A    between atoms: _419  and  _422
REMARK  176  A    between atoms: _422  and  _423
REMARK  177  A    between atoms: _426  and  _428
REMARK  178  A    between atoms: _428  and  _429
REMARK  179  A    between atoms: _432  and  _434
REMARK  180  A    between atoms: _434  and  _435
REMARK  181  A    between atoms: _434  and  _437
REMARK  182  A    between atoms: _437  and  _438
REMARK  183  A    between atoms: _443  and  _445
REMARK  184  A    between atoms: _445  and  _446
REMARK  185  A    between atoms: _445  and  _448
REMARK  186  A    between atoms: _448  and  _449
REMARK  187  A    between atoms: _452  and  _454
REMARK  188  A    between atoms: _454  and  _455
REMARK  189  A    between atoms: _454  and  _457
REMARK  190  A    between atoms: _457  and  _458
REMARK  191  A    between atoms: _463  and  _465
REMARK  192  A    between atoms: _465  and  _466
REMARK  193  A    between atoms: _465  and  _468
REMARK  194  A    between atoms: _468  and  _469
REMARK  195  A    between atoms: _474  and  _475
REMARK  196  A    between atoms: _477  and  _479
REMARK  197  A    between atoms: _479  and  _480
REMARK  198  A    between atoms: _479  and  _482
REMARK  199  A    between atoms: _482  and  _483
REMARK  200  A    between atoms: _483  and  _484
REMARK  201  A    between atoms: _484  and  _485
REMARK  202  A    between atoms: _485  and  _486
REMARK  203  A    between atoms: _490  and  _492
REMARK  204  A    between atoms: _492  and  _493
REMARK  205  A    between atoms: _492  and  _495
REMARK  206  A    between atoms: _495  and  _496
REMARK  207  A    between atoms: _496  and  _497
REMARK  208  A    between atoms: _497  and  _498
REMARK  209  A    between atoms: _508  and  _509
REMARK  210  A    between atoms: _514  and  _516
REMARK  211  A    between atoms: _516  and  _517
REMARK  212  A    between atoms: _516  and  _519
REMARK  213  A    between atoms: _519  and  _520
REMARK  214  A    between atoms: _524  and  _525
REMARK  215  A    between atoms: _530  and  _532
REMARK  216  A    between atoms: _532  and  _533
REMARK  217  A    between atoms: _532  and  _535
REMARK  218  A    between atoms: _535  and  _536
REMARK  219  A    between atoms: _539  and  _541
REMARK  220  A    between atoms: _541  and  _542
REMARK  221  A    between atoms: _541  and  _544
REMARK  222  A    between atoms: _544  and  _545
REMARK  223  A    between atoms: _550  and  _551
REMARK  224  A    between atoms: _553  and  _555
REMARK  225  A    between atoms: _555  and  _556
REMARK  226  A    between atoms: _555  and  _558
REMARK  227  A    between atoms: _558  and  _559
REMARK  228  A    between atoms: _561  and  _563
REMARK  229  A    between atoms: _563  and  _564
REMARK  230  A    between atoms: _563  and  _566
REMARK  231  A    between atoms: _566  and  _567
REMARK  232  A    between atoms: _567  and  _568
REMARK                            x       y       z     vdW  Elec       q    Type
REMARK                         _______ _______ _______ _____ _____    ______ ____
ROOT
ATOM      1  O   HOH     1      37.451  58.614  33.952  0.00  0.00    +0.000 OA
ENDROOT
TORSDOF 0
REMARK  Name = ../refined-set-2016/4gah/4gah_pocket.pdb
REMARK  232 active torsions:
REMARK  status: ('A' for Active; 'I' for Inactive)
REMARK    1  A    between atoms: _1  and  _3
REMARK    2  A    between atoms: _3  and  _4
REMARK    3  A    between atoms: _3  and  _6
REMARK    4  A    between atoms: _6  and  _7
REMARK    5  A    between atoms: _7  and  _8
REMARK    6  A    between atoms: _8  and  _9
REMARK    7  A    between atoms: _18  and  _20
REMARK    8  A    between atoms: _20  and  _21
REMARK    9  A    between atoms: _20  and  _23
REMARK   10  A    between atoms: _23  and  _24
REMARK   11  A    between atoms: _27  and  _29
REMARK   12  A    between atoms: _29  and  _30
REMARK   13  A    between atoms: _29  and  _32
REMARK   14  A    between atoms: _32  and  _33
REMARK   15  A    between atoms: _39  and  _41
REMARK   16  A    between atoms: _41  and  _42
REMARK   17  A    between atoms: _41  and  _44
REMARK   18  A    between atoms: _44  and  _45
REMARK   19  A    between atoms: _48  and  _50
REMARK   20  A    between atoms: _50  and  _51
REMARK   21  A    between atoms: _50  and  _53
REMARK   22  A    between atoms: _53  and  _54
REMARK   23  A    between atoms: _57  and  _59
REMARK   24  A    between atoms: _59  and  _60
REMARK   25  A    between atoms: _59  and  _62
REMARK   26  A    between atoms: _62  and  _63
REMARK   27  A    between atoms: _66  and  _68
REMARK   28  A    between atoms: _68  and  _69
REMARK   29  A    between atoms: _72  and  _74
REMARK   30  A    between atoms: _74  and  _75
REMARK   31  A    between atoms: _74  and  _77
REMARK   32  A    between atoms: _77  and  _78
REMARK   33  A    between atoms: _81  and  _83
REMARK   34  A    between atoms: _83  and  _84
REMARK   35  A    between atoms: _83  and  _86
REMARK   36  A    between atoms: _89  and  _91
REMARK   37  A    between atoms: _91  and  _92
REMARK   38  A    between atoms: _94  and  _96
REMARK   39  A    between atoms: _96  and  _97
REMARK   40  A    between atoms: _96  and  _99
REMARK   41  A    between atoms: _99  and  _100
REMARK   42  A    between atoms: _100  and  _101
REMARK   43  A    between atoms: _103  and  _105
REMARK   44  A    between atoms: _105  and  _106
REMARK   45  A    between atoms: _105  and  _108
REMARK   46  A    between atoms: _108  and  _109
REMARK   47  A    between atoms: _109  and  _110
REMARK   48  A    between atoms: _112  and  _114
REMARK   49  A    between atoms: _114  and  _115
REMARK   50  A    between atoms: _117  and  _119
REMARK   51  A    between atoms: _119  and  _120
REMARK   52  A    between atoms: _119  and  _122
REMARK   53  A    between atoms: _122  and  _123
REMARK   54  A    between atoms: _126  and  _128
REMARK   55  A    between atoms: _128  and  _129
REMARK   56  A    between atoms: _128  and  _131
REMARK   57  A    between atoms: _134  and  _136
REMARK   58  A    between atoms: _136  and  _137
REMARK   59  A    between atoms: _136  and  _139
REMARK   60  A    between atoms: _139  and  _140
REMARK   61  A    between atoms: _140  and  _141
REMARK   62  A    between atoms: _143  and  _145
REMARK   63  A    between atoms: _145  and  _146
REMARK   64  A    between atoms: _145  and  _148
REMARK   65  A    between atoms: _148  and  _149
REMARK   66  A    between atoms: _152  and  _154
REMARK   67  A    between atoms: _154  and  _155
REMARK   68  A    between atoms: _158  and  _160
REMARK   69  A    between atoms: _160  and  _161
REMARK   70  A    between atoms: _160  and  _163
REMARK   71  A    between atoms: _163  and  _164
REMARK   72  A    between atoms: _169  and  _171
REMARK   73  A    between atoms: _171  and  _172
REMARK   74  A    between atoms: _171  and  _174
REMARK   75  A    between atoms: _174  and  _175
REMARK   76  A    between atoms: _178  and  _180
REMARK   77  A    between atoms: _180  and  _181
REMARK   78  A    between atoms: _180  and  _183
REMARK   79  A    between atoms: _183  and  _184
REMARK   80  A    between atoms: _184  and  _185
REMARK   81  A    between atoms: _188  and  _190
REMARK   82  A    between atoms: _190  and  _191
REMARK   83  A    between atoms: _193  and  _195
REMARK   84  A    between atoms: _195  and  _196
REMARK   85  A    between atoms: _195  and  _198
REMARK   86  A    between atoms: _198  and  _199
REMARK   87  A    between atoms: _199  and  _200
REMARK   88  A    between atoms: _200  and  _201
REMARK   89  A    between atoms: _210  and  _212
REMARK   90  A    between atoms: _212  and  _213
REMARK   91  A    between atoms: _212  and  _215
REMARK   92  A    between atoms: _215  and  _216
REMARK   93  A    between atoms: _216  and  _217
REMARK   94  A    between atoms: _217  and  _218
REMARK   95  A    between atoms: _218  and  _219
REMARK   96  A    between atoms: _223  and  _225
REMARK   97  A    between atoms: _225  and  _226
REMARK   98  A    between atoms: _225  and  _228
REMARK   99  A    between atoms: _228  and  _229
REMARK  100  A    between atoms: _235  and  _237
REMARK  101  A    between atoms: _237  and  _238
REMARK  102  A    between atoms: _237  and  _240
REMARK  103  A    between atoms: _240  and  _241
REMARK  104  A    between atoms: _247  and  _249
REMARK  105  A    between atoms: _249  and  _250
REMARK  106  A    between atoms: _249  and  _252
REMARK  107  A    between atoms: _252  and  _253
REMARK  108  A    between atoms: _256  and  _258
REMARK  109  A    between atoms: _258  and  _259
REMARK  110  A    between atoms: _258  and  _261
REMARK  111  A    between atoms: _261  and  _262
REMARK  112  A    between atoms: _268  and  _270
REMARK  113  A    between atoms: _270  and  _271
REMARK  114  A    between atoms: _270  and  _273
REMARK  115  A    between atoms: _273  and  _274
REMARK  116  A    between atoms: _277  and  _279
REMARK  117  A    between atoms: _279  and  _280
REMARK  118  A    between atoms: _279  and  _282
REMARK  119  A    between atoms: _282  and  _283
REMARK  120  A    between atoms: _283  and  _284
REMARK  121  A    between atoms: _284  and  _285
REMARK  122  A    between atoms: _285  and  _286
REMARK  123  A    between atoms: _290  and  _292
REMARK  124  A    between atoms: _292  and  _293
REMARK  125  A    between atoms: _292  and  _295
REMARK  126  A    between atoms: _295  and  _296
REMARK  127  A    between atoms: _299  and  _301
REMARK  128  A    between atoms: _301  and  _302
REMARK  129  A    between atoms: _301  and  _304
REMARK  130  A    between atoms: _304  and  _305
REMARK  131  A    between atoms: _310  and  _312
REMARK  132  A    between atoms: _312  and  _313
REMARK  133  A    between atoms: _312  and  _315
REMARK  134  A    between atoms: _315  and  _316
REMARK  135  A    between atoms: _316  and  _317
REMARK  136  A    between atoms: _317  and  _318
REMARK  137  A    between atoms: _318  and  _319
REMARK  138  A    between atoms: _323  and  _325
REMARK  139  A    between atoms: _325  and  _326
REMARK  140  A    between atoms: _325  and  _328
REMARK  141  A    between atoms: _328  and  _329
REMARK  142  A    between atoms: _331  and  _333
REMARK  143  A    between atoms: _333  and  _334
REMARK  144  A    between atoms: _333  and  _336
REMARK  145  A    between atoms: _336  and  _337
REMARK  146  A    between atoms: _340  and  _342
REMARK  147  A    between atoms: _342  and  _343
REMARK  148  A    between atoms: _342  and  _345
REMARK  149  A    between atoms: _345  and  _346
REMARK  150  A    between atoms: _346  and  _347
REMARK  151  A    between atoms: _350  and  _352
REMARK  152  A    between atoms: _352  and  _353
REMARK  153  A    between atoms: _356  and  _357
REMARK  154  A    between atoms: _363  and  _364
REMARK  155  A    between atoms: _369  and  _371
REMARK  156  A    between atoms: _371  and  _372
REMARK  157  A    between atoms: _371  and  _374
REMARK  158  A    between atoms: _374  and  _375
REMARK  159  A    between atoms: _381  and  _383
REMARK  160  A    between atoms: _383  and  _384
REMARK  161  A    between atoms: _383  and  _386
REMARK  162  A    between atoms: _386  and  _387
REMARK  163  A    between atoms: _390  and  _392
REMARK  164  A    between atoms: _392  and  _393
REMARK  165  A    between atoms: _392  and  _395
REMARK  166  A    between atoms: _395  and  _396
REMARK  167  A    between atoms: _401  and  _403
REMARK  168  A    between atoms: _403  and  _404
REMARK  169  A    between atoms: _406  and  _408
REMARK  170  A    between atoms: _408  and  _409
REMARK  171  A    between atoms: _411  and  _413
REMARK  172  A    between atoms: _413  and  _414
REMARK  173  A    between atoms: _417  and  _419
REMARK  174  A    between atoms: _419  and  _420
REMARK  175  A    between atoms: _419  and  _422
REMARK  176  A    between atoms: _422  and  _423
REMARK  177  A    between atoms: _426  and  _428
REMARK  178  A    between atoms: _428  and  _429
REMARK  179  A    between atoms: _432  and  _434
REMARK  180  A    between atoms: _434  and  _435
REMARK  181  A    between atoms: _434  and  _437
REMARK  182  A    between atoms: _437  and  _438
REMARK  183  A    between atoms: _443  and  _445
REMARK  184  A    between atoms: _445  and  _446
REMARK  185  A    between atoms: _445  and  _448
REMARK  186  A    between atoms: _448  and  _449
REMARK  187  A    between atoms: _452  and  _454
REMARK  188  A    between atoms: _454  and  _455
REMARK  189  A    between atoms: _454  and  _457
REMARK  190  A    between atoms: _457  and  _458
REMARK  191  A    between atoms: _463  and  _465
REMARK  192  A    between atoms: _465  and  _466
REMARK  193  A    between atoms: _465  and  _468
REMARK  194  A    between atoms: _468  and  _469
REMARK  195  A    between atoms: _474  and  _475
REMARK  196  A    between atoms: _477  and  _479
REMARK  197  A    between atoms: _479  and  _480
REMARK  198  A    between atoms: _479  and  _482
REMARK  199  A    between atoms: _482  and  _483
REMARK  200  A    between atoms: _483  and  _484
REMARK  201  A    between atoms: _484  and  _485
REMARK  202  A    between atoms: _485  and  _486
REMARK  203  A    between atoms: _490  and  _492
REMARK  204  A    between atoms: _492  and  _493
REMARK  205  A    between atoms: _492  and  _495
REMARK  206  A    between atoms: _495  and  _496
REMARK  207  A    between atoms: _496  and  _497
REMARK  208  A    between atoms: _497  and  _498
REMARK  209  A    between atoms: _508  and  _509
REMARK  210  A    between atoms: _514  and  _516
REMARK  211  A    between atoms: _516  and  _517
REMARK  212  A    between atoms: _516  and  _519
REMARK  213  A    between atoms: _519  and  _520
REMARK  214  A    between atoms: _524  and  _525
REMARK  215  A    between atoms: _530  and  _532
REMARK  216  A    between atoms: _532  and  _533
REMARK  217  A    between atoms: _532  and  _535
REMARK  218  A    between atoms: _535  and  _536
REMARK  219  A    between atoms: _539  and  _541
REMARK  220  A    between atoms: _541  and  _542
REMARK  221  A    between atoms: _541  and  _544
REMARK  222  A    between atoms: _544  and  _545
REMARK  223  A    between atoms: _550  and  _551
REMARK  224  A    between atoms: _553  and  _555
REMARK  225  A    between atoms: _555  and  _556
REMARK  226  A    between atoms: _555  and  _558
REMARK  227  A    between atoms: _558  and  _559
REMARK  228  A    between atoms: _561  and  _563
REMARK  229  A    between atoms: _563  and  _564
REMARK  230  A    between atoms: _563  and  _566
REMARK  231  A    between atoms: _566  and  _567
REMARK  232  A    between atoms: _567  and  _568
REMARK                            x       y       z     vdW  Elec       q    Type
REMARK                         _______ _______ _______ _____ _____    ______ ____
ROOT
ATOM      1  O   HOH     1      20.810  74.507  47.482  0.00  0.00    +0.000 OA
ENDROOT
TORSDOF 0
REMARK  Name = ../refined-set-2016/4gah/4gah_pocket.pdb
REMARK  232 active torsions:
REMARK  status: ('A' for Active; 'I' for Inactive)
REMARK    1  A    between atoms: _1  and  _3
REMARK    2  A    between atoms: _3  and  _4
REMARK    3  A    between atoms: _3  and  _6
REMARK    4  A    between atoms: _6  and  _7
REMARK    5  A    between atoms: _7  and  _8
REMARK    6  A    between atoms: _8  and  _9
REMARK    7  A    between atoms: _18  and  _20
REMARK    8  A    between atoms: _20  and  _21
REMARK    9  A    between atoms: _20  and  _23
REMARK   10  A    between atoms: _23  and  _24
REMARK   11  A    between atoms: _27  and  _29
REMARK   12  A    between atoms: _29  and  _30
REMARK   13  A    between atoms: _29  and  _32
REMARK   14  A    between atoms: _32  and  _33
REMARK   15  A    between atoms: _39  and  _41
REMARK   16  A    between atoms: _41  and  _42
REMARK   17  A    between atoms: _41  and  _44
REMARK   18  A    between atoms: _44  and  _45
REMARK   19  A    between atoms: _48  and  _50
REMARK   20  A    between atoms: _50  and  _51
REMARK   21  A    between atoms: _50  and  _53
REMARK   22  A    between atoms: _53  and  _54
REMARK   23  A    between atoms: _57  and  _59
REMARK   24  A    between atoms: _59  and  _60
REMARK   25  A    between atoms: _59  and  _62
REMARK   26  A    between atoms: _62  and  _63
REMARK   27  A    between atoms: _66  and  _68
REMARK   28  A    between atoms: _68  and  _69
REMARK   29  A    between atoms: _72  and  _74
REMARK   30  A    between atoms: _74  and  _75
REMARK   31  A    between atoms: _74  and  _77
REMARK   32  A    between atoms: _77  and  _78
REMARK   33  A    between atoms: _81  and  _83
REMARK   34  A    between atoms: _83  and  _84
REMARK   35  A    between atoms: _83  and  _86
REMARK   36  A    between atoms: _89  and  _91
REMARK   37  A    between atoms: _91  and  _92
REMARK   38  A    between atoms: _94  and  _96
REMARK   39  A    between atoms: _96  and  _97
REMARK   40  A    between atoms: _96  and  _99
REMARK   41  A    between atoms: _99  and  _100
REMARK   42  A    between atoms: _100  and  _101
REMARK   43  A    between atoms: _103  and  _105
REMARK   44  A    between atoms: _105  and  _106
REMARK   45  A    between atoms: _105  and  _108
REMARK   46  A    between atoms: _108  and  _109
REMARK   47  A    between atoms: _109  and  _110
REMARK   48  A    between atoms: _112  and  _114
REMARK   49  A    between atoms: _114  and  _115
REMARK   50  A    between atoms: _117  and  _119
REMARK   51  A    between atoms: _119  and  _120
REMARK   52  A    between atoms: _119  and  _122
REMARK   53  A    between atoms: _122  and  _123
REMARK   54  A    between atoms: _126  and  _128
REMARK   55  A    between atoms: _128  and  _129
REMARK   56  A    between atoms: _128  and  _131
REMARK   57  A    between atoms: _134  and  _136
REMARK   58  A    between atoms: _136  and  _137
REMARK   59  A    between atoms: _136  and  _139
REMARK   60  A    between atoms: _139  and  _140
REMARK   61  A    between atoms: _140  and  _141
REMARK   62  A    between atoms: _143  and  _145
REMARK   63  A    between atoms: _145  and  _146
REMARK   64  A    between atoms: _145  and  _148
REMARK   65  A    between atoms: _148  and  _149
REMARK   66  A    between atoms: _152  and  _154
REMARK   67  A    between atoms: _154  and  _155
REMARK   68  A    between atoms: _158  and  _160
REMARK   69  A    between atoms: _160  and  _161
REMARK   70  A    between atoms: _160  and  _163
REMARK   71  A    between atoms: _163  and  _164
REMARK   72  A    between atoms: _169  and  _171
REMARK   73  A    between atoms: _171  and  _172
REMARK   74  A    between atoms: _171  and  _174
REMARK   75  A    between atoms: _174  and  _175
REMARK   76  A    between atoms: _178  and  _180
REMARK   77  A    between atoms: _180  and  _181
REMARK   78  A    between atoms: _180  and  _183
REMARK   79  A    between atoms: _183  and  _184
REMARK   80  A    between atoms: _184  and  _185
REMARK   81  A    between atoms: _188  and  _190
REMARK   82  A    between atoms: _190  and  _191
REMARK   83  A    between atoms: _193  and  _195
REMARK   84  A    between atoms: _195  and  _196
REMARK   85  A    between atoms: _195  and  _198
REMARK   86  A    between atoms: _198  and  _199
REMARK   87  A    between atoms: _199  and  _200
REMARK   88  A    between atoms: _200  and  _201
REMARK   89  A    between atoms: _210  and  _212
REMARK   90  A    between atoms: _212  and  _213
REMARK   91  A    between atoms: _212  and  _215
REMARK   92  A    between atoms: _215  and  _216
REMARK   93  A    between atoms: _216  and  _217
REMARK   94  A    between atoms: _217  and  _218
REMARK   95  A    between atoms: _218  and  _219
REMARK   96  A    between atoms: _223  and  _225
REMARK   97  A    between atoms: _225  and  _226
REMARK   98  A    between atoms: _225  and  _228
REMARK   99  A    between atoms: _228  and  _229
REMARK  100  A    between atoms: _235  and  _237
REMARK  101  A    between atoms: _237  and  _238
REMARK  102  A    between atoms: _237  and  _240
REMARK  103  A    between atoms: _240  and  _241
REMARK  104  A    between atoms: _247  and  _249
REMARK  105  A    between atoms: _249  and  _250
REMARK  106  A    between atoms: _249  and  _252
REMARK  107  A    between atoms: _252  and  _253
REMARK  108  A    between atoms: _256  and  _258
REMARK  109  A    between atoms: _258  and  _259
REMARK  110  A    between atoms: _258  and  _261
REMARK  111  A    between atoms: _261  and  _262
REMARK  112  A    between atoms: _268  and  _270
REMARK  113  A    between atoms: _270  and  _271
REMARK  114  A    between atoms: _270  and  _273
REMARK  115  A    between atoms: _273  and  _274
REMARK  116  A    between atoms: _277  and  _279
REMARK  117  A    between atoms: _279  and  _280
REMARK  118  A    between atoms: _279  and  _282
REMARK  119  A    between atoms: _282  and  _283
REMARK  120  A    between atoms: _283  and  _284
REMARK  121  A    between atoms: _284  and  _285
REMARK  122  A    between atoms: _285  and  _286
REMARK  123  A    between atoms: _290  and  _292
REMARK  124  A    between atoms: _292  and  _293
REMARK  125  A    between atoms: _292  and  _295
REMARK  126  A    between atoms: _295  and  _296
REMARK  127  A    between atoms: _299  and  _301
REMARK  128  A    between atoms: _301  and  _302
REMARK  129  A    between atoms: _301  and  _304
REMARK  130  A    between atoms: _304  and  _305
REMARK  131  A    between atoms: _310  and  _312
REMARK  132  A    between atoms: _312  and  _313
REMARK  133  A    between atoms: _312  and  _315
REMARK  134  A    between atoms: _315  and  _316
REMARK  135  A    between atoms: _316  and  _317
REMARK  136  A    between atoms: _317  and  _318
REMARK  137  A    between atoms: _318  and  _319
REMARK  138  A    between atoms: _323  and  _325
REMARK  139  A    between atoms: _325  and  _326
REMARK  140  A    between atoms: _325  and  _328
REMARK  141  A    between atoms: _328  and  _329
REMARK  142  A    between atoms: _331  and  _333
REMARK  143  A    between atoms: _333  and  _334
REMARK  144  A    between atoms: _333  and  _336
REMARK  145  A    between atoms: _336  and  _337
REMARK  146  A    between atoms: _340  and  _342
REMARK  147  A    between atoms: _342  and  _343
REMARK  148  A    between atoms: _342  and  _345
REMARK  149  A    between atoms: _345  and  _346
REMARK  150  A    between atoms: _346  and  _347
REMARK  151  A    between atoms: _350  and  _352
REMARK  152  A    between atoms: _352  and  _353
REMARK  153  A    between atoms: _356  and  _357
REMARK  154  A    between atoms: _363  and  _364
REMARK  155  A    between atoms: _369  and  _371
REMARK  156  A    between atoms: _371  and  _372
REMARK  157  A    between atoms: _371  and  _374
REMARK  158  A    between atoms: _374  and  _375
REMARK  159  A    between atoms: _381  and  _383
REMARK  160  A    between atoms: _383  and  _384
REMARK  161  A    between atoms: _383  and  _386
REMARK  162  A    between atoms: _386  and  _387
REMARK  163  A    between atoms: _390  and  _392
REMARK  164  A    between atoms: _392  and  _393
REMARK  165  A    between atoms: _392  and  _395
REMARK  166  A    between atoms: _395  and  _396
REMARK  167  A    between atoms: _401  and  _403
REMARK  168  A    between atoms: _403  and  _404
REMARK  169  A    between atoms: _406  and  _408
REMARK  170  A    between atoms: _408  and  _409
REMARK  171  A    between atoms: _411  and  _413
REMARK  172  A    between atoms: _413  and  _414
REMARK  173  A    between atoms: _417  and  _419
REMARK  174  A    between atoms: _419  and  _420
REMARK  175  A    between atoms: _419  and  _422
REMARK  176  A    between atoms: _422  and  _423
REMARK  177  A    between atoms: _426  and  _428
REMARK  178  A    between atoms: _428  and  _429
REMARK  179  A    between atoms: _432  and  _434
REMARK  180  A    between atoms: _434  and  _435
REMARK  181  A    between atoms: _434  and  _437
REMARK  182  A    between atoms: _437  and  _438
REMARK  183  A    between atoms: _443  and  _445
REMARK  184  A    between atoms: _445  and  _446
REMARK  185  A    between atoms: _445  and  _448
REMARK  186  A    between atoms: _448  and  _449
REMARK  187  A    between atoms: _452  and  _454
REMARK  188  A    between atoms: _454  and  _455
REMARK  189  A    between atoms: _454  and  _457
REMARK  190  A    between atoms: _457  and  _458
REMARK  191  A    between atoms: _463  and  _465
REMARK  192  A    between atoms: _465  and  _466
REMARK  193  A    between atoms: _465  and  _468
REMARK  194  A    between atoms: _468  and  _469
REMARK  195  A    between atoms: _474  and  _475
REMARK  196  A    between atoms: _477  and  _479
REMARK  197  A    between atoms: _479  and  _480
REMARK  198  A    between atoms: _479  and  _482
REMARK  199  A    between atoms: _482  and  _483
REMARK  200  A    between atoms: _483  and  _484
REMARK  201  A    between atoms: _484  and  _485
REMARK  202  A    between atoms: _485  and  _486
REMARK  203  A    between atoms: _490  and  _492
REMARK  204  A    between atoms: _492  and  _493
REMARK  205  A    between atoms: _492  and  _495
REMARK  206  A    between atoms: _495  and  _496
REMARK  207  A    between atoms: _496  and  _497
REMARK  208  A    between atoms: _497  and  _498
REMARK  209  A    between atoms: _508  and  _509
REMARK  210  A    between atoms: _514  and  _516
REMARK  211  A    between atoms: _516  and  _517
REMARK  212  A    between atoms: _516  and  _519
REMARK  213  A    between atoms: _519  and  _520
REMARK  214  A    between atoms: _524  and  _525
REMARK  215  A    between atoms: _530  and  _532
REMARK  216  A    between atoms: _532  and  _533
REMARK  217  A    between atoms: _532  and  _535
REMARK  218  A    between atoms: _535  and  _536
REMARK  219  A    between atoms: _539  and  _541
REMARK  220  A    between atoms: _541  and  _542
REMARK  221  A    between atoms: _541  and  _544
REMARK  222  A    between atoms: _544  and  _545
REMARK  223  A    between atoms: _550  and  _551
REMARK  224  A    between atoms: _553  and  _555
REMARK  225  A    between atoms: _555  and  _556
REMARK  226  A    between atoms: _555  and  _558
REMARK  227  A    between atoms: _558  and  _559
REMARK  228  A    between atoms: _561  and  _563
REMARK  229  A    between atoms: _563  and  _564
REMARK  230  A    between atoms: _563  and  _566
REMARK  231  A    between atoms: _566  and  _567
REMARK  232  A    between atoms: _567  and  _568
REMARK                            x       y       z     vdW  Elec       q    Type
REMARK                         _______ _______ _______ _____ _____    ______ ____
ROOT
ATOM      1  O   HOH     1      38.198  61.139  41.343  0.00  0.00    +0.000 OA
ENDROOT
TORSDOF 0
REMARK  Name = ../refined-set-2016/4gah/4gah_pocket.pdb
REMARK  232 active torsions:
REMARK  status: ('A' for Active; 'I' for Inactive)
REMARK    1  A    between atoms: _1  and  _3
REMARK    2  A    between atoms: _3  and  _4
REMARK    3  A    between atoms: _3  and  _6
REMARK    4  A    between atoms: _6  and  _7
REMARK    5  A    between atoms: _7  and  _8
REMARK    6  A    between atoms: _8  and  _9
REMARK    7  A    between atoms: _18  and  _20
REMARK    8  A    between atoms: _20  and  _21
REMARK    9  A    between atoms: _20  and  _23
REMARK   10  A    between atoms: _23  and  _24
REMARK   11  A    between atoms: _27  and  _29
REMARK   12  A    between atoms: _29  and  _30
REMARK   13  A    between atoms: _29  and  _32
REMARK   14  A    between atoms: _32  and  _33
REMARK   15  A    between atoms: _39  and  _41
REMARK   16  A    between atoms: _41  and  _42
REMARK   17  A    between atoms: _41  and  _44
REMARK   18  A    between atoms: _44  and  _45
REMARK   19  A    between atoms: _48  and  _50
REMARK   20  A    between atoms: _50  and  _51
REMARK   21  A    between atoms: _50  and  _53
REMARK   22  A    between atoms: _53  and  _54
REMARK   23  A    between atoms: _57  and  _59
REMARK   24  A    between atoms: _59  and  _60
REMARK   25  A    between atoms: _59  and  _62
REMARK   26  A    between atoms: _62  and  _63
REMARK   27  A    between atoms: _66  and  _68
REMARK   28  A    between atoms: _68  and  _69
REMARK   29  A    between atoms: _72  and  _74
REMARK   30  A    between atoms: _74  and  _75
REMARK   31  A    between atoms: _74  and  _77
REMARK   32  A    between atoms: _77  and  _78
REMARK   33  A    between atoms: _81  and  _83
REMARK   34  A    between atoms: _83  and  _84
REMARK   35  A    between atoms: _83  and  _86
REMARK   36  A    between atoms: _89  and  _91
REMARK   37  A    between atoms: _91  and  _92
REMARK   38  A    between atoms: _94  and  _96
REMARK   39  A    between atoms: _96  and  _97
REMARK   40  A    between atoms: _96  and  _99
REMARK   41  A    between atoms: _99  and  _100
REMARK   42  A    between atoms: _100  and  _101
REMARK   43  A    between atoms: _103  and  _105
REMARK   44  A    between atoms: _105  and  _106
REMARK   45  A    between atoms: _105  and  _108
REMARK   46  A    between atoms: _108  and  _109
REMARK   47  A    between atoms: _109  and  _110
REMARK   48  A    between atoms: _112  and  _114
REMARK   49  A    between atoms: _114  and  _115
REMARK   50  A    between atoms: _117  and  _119
REMARK   51  A    between atoms: _119  and  _120
REMARK   52  A    between atoms: _119  and  _122
REMARK   53  A    between atoms: _122  and  _123
REMARK   54  A    between atoms: _126  and  _128
REMARK   55  A    between atoms: _128  and  _129
REMARK   56  A    between atoms: _128  and  _131
REMARK   57  A    between atoms: _134  and  _136
REMARK   58  A    between atoms: _136  and  _137
REMARK   59  A    between atoms: _136  and  _139
REMARK   60  A    between atoms: _139  and  _140
REMARK   61  A    between atoms: _140  and  _141
REMARK   62  A    between atoms: _143  and  _145
REMARK   63  A    between atoms: _145  and  _146
REMARK   64  A    between atoms: _145  and  _148
REMARK   65  A    between atoms: _148  and  _149
REMARK   66  A    between atoms: _152  and  _154
REMARK   67  A    between atoms: _154  and  _155
REMARK   68  A    between atoms: _158  and  _160
REMARK   69  A    between atoms: _160  and  _161
REMARK   70  A    between atoms: _160  and  _163
REMARK   71  A    between atoms: _163  and  _164
REMARK   72  A    between atoms: _169  and  _171
REMARK   73  A    between atoms: _171  and  _172
REMARK   74  A    between atoms: _171  and  _174
REMARK   75  A    between atoms: _174  and  _175
REMARK   76  A    between atoms: _178  and  _180
REMARK   77  A    between atoms: _180  and  _181
REMARK   78  A    between atoms: _180  and  _183
REMARK   79  A    between atoms: _183  and  _184
REMARK   80  A    between atoms: _184  and  _185
REMARK   81  A    between atoms: _188  and  _190
REMARK   82  A    between atoms: _190  and  _191
REMARK   83  A    between atoms: _193  and  _195
REMARK   84  A    between atoms: _195  and  _196
REMARK   85  A    between atoms: _195  and  _198
REMARK   86  A    between atoms: _198  and  _199
REMARK   87  A    between atoms: _199  and  _200
REMARK   88  A    between atoms: _200  and  _201
REMARK   89  A    between atoms: _210  and  _212
REMARK   90  A    between atoms: _212  and  _213
REMARK   91  A    between atoms: _212  and  _215
REMARK   92  A    between atoms: _215  and  _216
REMARK   93  A    between atoms: _216  and  _217
REMARK   94  A    between atoms: _217  and  _218
REMARK   95  A    between atoms: _218  and  _219
REMARK   96  A    between atoms: _223  and  _225
REMARK   97  A    between atoms: _225  and  _226
REMARK   98  A    between atoms: _225  and  _228
REMARK   99  A    between atoms: _228  and  _229
REMARK  100  A    between atoms: _235  and  _237
REMARK  101  A    between atoms: _237  and  _238
REMARK  102  A    between atoms: _237  and  _240
REMARK  103  A    between atoms: _240  and  _241
REMARK  104  A    between atoms: _247  and  _249
REMARK  105  A    between atoms: _249  and  _250
REMARK  106  A    between atoms: _249  and  _252
REMARK  107  A    between atoms: _252  and  _253
REMARK  108  A    between atoms: _256  and  _258
REMARK  109  A    between atoms: _258  and  _259
REMARK  110  A    between atoms: _258  and  _261
REMARK  111  A    between atoms: _261  and  _262
REMARK  112  A    between atoms: _268  and  _270
REMARK  113  A    between atoms: _270  and  _271
REMARK  114  A    between atoms: _270  and  _273
REMARK  115  A    between atoms: _273  and  _274
REMARK  116  A    between atoms: _277  and  _279
REMARK  117  A    between atoms: _279  and  _280
REMARK  118  A    between atoms: _279  and  _282
REMARK  119  A    between atoms: _282  and  _283
REMARK  120  A    between atoms: _283  and  _284
REMARK  121  A    between atoms: _284  and  _285
REMARK  122  A    between atoms: _285  and  _286
REMARK  123  A    between atoms: _290  and  _292
REMARK  124  A    between atoms: _292  and  _293
REMARK  125  A    between atoms: _292  and  _295
REMARK  126  A    between atoms: _295  and  _296
REMARK  127  A    between atoms: _299  and  _301
REMARK  128  A    between atoms: _301  and  _302
REMARK  129  A    between atoms: _301  and  _304
REMARK  130  A    between atoms: _304  and  _305
REMARK  131  A    between atoms: _310  and  _312
REMARK  132  A    between atoms: _312  and  _313
REMARK  133  A    between atoms: _312  and  _315
REMARK  134  A    between atoms: _315  and  _316
REMARK  135  A    between atoms: _316  and  _317
REMARK  136  A    between atoms: _317  and  _318
REMARK  137  A    between atoms: _318  and  _319
REMARK  138  A    between atoms: _323  and  _325
REMARK  139  A    between atoms: _325  and  _326
REMARK  140  A    between atoms: _325  and  _328
REMARK  141  A    between atoms: _328  and  _329
REMARK  142  A    between atoms: _331  and  _333
REMARK  143  A    between atoms: _333  and  _334
REMARK  144  A    between atoms: _333  and  _336
REMARK  145  A    between atoms: _336  and  _337
REMARK  146  A    between atoms: _340  and  _342
REMARK  147  A    between atoms: _342  and  _343
REMARK  148  A    between atoms: _342  and  _345
REMARK  149  A    between atoms: _345  and  _346
REMARK  150  A    between atoms: _346  and  _347
REMARK  151  A    between atoms: _350  and  _352
REMARK  152  A    between atoms: _352  and  _353
REMARK  153  A    between atoms: _356  and  _357
REMARK  154  A    between atoms: _363  and  _364
REMARK  155  A    between atoms: _369  and  _371
REMARK  156  A    between atoms: _371  and  _372
REMARK  157  A    between atoms: _371  and  _374
REMARK  158  A    between atoms: _374  and  _375
REMARK  159  A    between atoms: _381  and  _383
REMARK  160  A    between atoms: _383  and  _384
REMARK  161  A    between atoms: _383  and  _386
REMARK  162  A    between atoms: _386  and  _387
REMARK  163  A    between atoms: _390  and  _392
REMARK  164  A    between atoms: _392  and  _393
REMARK  165  A    between atoms: _392  and  _395
REMARK  166  A    between atoms: _395  and  _396
REMARK  167  A    between atoms: _401  and  _403
REMARK  168  A    between atoms: _403  and  _404
REMARK  169  A    between atoms: _406  and  _408
REMARK  170  A    between atoms: _408  and  _409
REMARK  171  A    between atoms: _411  and  _413
REMARK  172  A    between atoms: _413  and  _414
REMARK  173  A    between atoms: _417  and  _419
REMARK  174  A    between atoms: _419  and  _420
REMARK  175  A    between atoms: _419  and  _422
REMARK  176  A    between atoms: _422  and  _423
REMARK  177  A    between atoms: _426  and  _428
REMARK  178  A    between atoms: _428  and  _429
REMARK  179  A    between atoms: _432  and  _434
REMARK  180  A    between atoms: _434  and  _435
REMARK  181  A    between atoms: _434  and  _437
REMARK  182  A    between atoms: _437  and  _438
REMARK  183  A    between atoms: _443  and  _445
REMARK  184  A    between atoms: _445  and  _446
REMARK  185  A    between atoms: _445  and  _448
REMARK  186  A    between atoms: _448  and  _449
REMARK  187  A    between atoms: _452  and  _454
REMARK  188  A    between atoms: _454  and  _455
REMARK  189  A    between atoms: _454  and  _457
REMARK  190  A    between atoms: _457  and  _458
REMARK  191  A    between atoms: _463  and  _465
REMARK  192  A    between atoms: _465  and  _466
REMARK  193  A    between atoms: _465  and  _468
REMARK  194  A    between atoms: _468  and  _469
REMARK  195  A    between atoms: _474  and  _475
REMARK  196  A    between atoms: _477  and  _479
REMARK  197  A    between atoms: _479  and  _480
REMARK  198  A    between atoms: _479  and  _482
REMARK  199  A    between atoms: _482  and  _483
REMARK  200  A    between atoms: _483  and  _484
REMARK  201  A    between atoms: _484  and  _485
REMARK  202  A    between atoms: _485  and  _486
REMARK  203  A    between atoms: _490  and  _492
REMARK  204  A    between atoms: _492  and  _493
REMARK  205  A    between atoms: _492  and  _495
REMARK  206  A    between atoms: _495  and  _496
REMARK  207  A    between atoms: _496  and  _497
REMARK  208  A    between atoms: _497  and  _498
REMARK  209  A    between atoms: _508  and  _509
REMARK  210  A    between atoms: _514  and  _516
REMARK  211  A    between atoms: _516  and  _517
REMARK  212  A    between atoms: _516  and  _519
REMARK  213  A    between atoms: _519  and  _520
REMARK  214  A    between atoms: _524  and  _525
REMARK  215  A    between atoms: _530  and  _532
REMARK  216  A    between atoms: _532  and  _533
REMARK  217  A    between atoms: _532  and  _535
REMARK  218  A    between atoms: _535  and  _536
REMARK  219  A    between atoms: _539  and  _541
REMARK  220  A    between atoms: _541  and  _542
REMARK  221  A    between atoms: _541  and  _544
REMARK  222  A    between atoms: _544  and  _545
REMARK  223  A    between atoms: _550  and  _551
REMARK  224  A    between atoms: _553  and  _555
REMARK  225  A    between atoms: _555  and  _556
REMARK  226  A    between atoms: _555  and  _558
REMARK  227  A    between atoms: _558  and  _559
REMARK  228  A    between atoms: _561  and  _563
REMARK  229  A    between atoms: _563  and  _564
REMARK  230  A    between atoms: _563  and  _566
REMARK  231  A    between atoms: _566  and  _567
REMARK  232  A    between atoms: _567  and  _568
REMARK                            x       y       z     vdW  Elec       q    Type
REMARK                         _______ _______ _______ _____ _____    ______ ____
ROOT
ATOM      1  O   HOH     1      18.874  65.253  31.811  0.00  0.00    +0.000 OA
ENDROOT
TORSDOF 0
REMARK  Name = ../refined-set-2016/4gah/4gah_pocket.pdb
REMARK  232 active torsions:
REMARK  status: ('A' for Active; 'I' for Inactive)
REMARK    1  A    between atoms: _1  and  _3
REMARK    2  A    between atoms: _3  and  _4
REMARK    3  A    between atoms: _3  and  _6
REMARK    4  A    between atoms: _6  and  _7
REMARK    5  A    between atoms: _7  and  _8
REMARK    6  A    between atoms: _8  and  _9
REMARK    7  A    between atoms: _18  and  _20
REMARK    8  A    between atoms: _20  and  _21
REMARK    9  A    between atoms: _20  and  _23
REMARK   10  A    between atoms: _23  and  _24
REMARK   11  A    between atoms: _27  and  _29
REMARK   12  A    between atoms: _29  and  _30
REMARK   13  A    between atoms: _29  and  _32
REMARK   14  A    between atoms: _32  and  _33
REMARK   15  A    between atoms: _39  and  _41
REMARK   16  A    between atoms: _41  and  _42
REMARK   17  A    between atoms: _41  and  _44
REMARK   18  A    between atoms: _44  and  _45
REMARK   19  A    between atoms: _48  and  _50
REMARK   20  A    between atoms: _50  and  _51
REMARK   21  A    between atoms: _50  and  _53
REMARK   22  A    between atoms: _53  and  _54
REMARK   23  A    between atoms: _57  and  _59
REMARK   24  A    between atoms: _59  and  _60
REMARK   25  A    between atoms: _59  and  _62
REMARK   26  A    between atoms: _62  and  _63
REMARK   27  A    between atoms: _66  and  _68
REMARK   28  A    between atoms: _68  and  _69
REMARK   29  A    between atoms: _72  and  _74
REMARK   30  A    between atoms: _74  and  _75
REMARK   31  A    between atoms: _74  and  _77
REMARK   32  A    between atoms: _77  and  _78
REMARK   33  A    between atoms: _81  and  _83
REMARK   34  A    between atoms: _83  and  _84
REMARK   35  A    between atoms: _83  and  _86
REMARK   36  A    between atoms: _89  and  _91
REMARK   37  A    between atoms: _91  and  _92
REMARK   38  A    between atoms: _94  and  _96
REMARK   39  A    between atoms: _96  and  _97
REMARK   40  A    between atoms: _96  and  _99
REMARK   41  A    between atoms: _99  and  _100
REMARK   42  A    between atoms: _100  and  _101
REMARK   43  A    between atoms: _103  and  _105
REMARK   44  A    between atoms: _105  and  _106
REMARK   45  A    between atoms: _105  and  _108
REMARK   46  A    between atoms: _108  and  _109
REMARK   47  A    between atoms: _109  and  _110
REMARK   48  A    between atoms: _112  and  _114
REMARK   49  A    between atoms: _114  and  _115
REMARK   50  A    between atoms: _117  and  _119
REMARK   51  A    between atoms: _119  and  _120
REMARK   52  A    between atoms: _119  and  _122
REMARK   53  A    between atoms: _122  and  _123
REMARK   54  A    between atoms: _126  and  _128
REMARK   55  A    between atoms: _128  and  _129
REMARK   56  A    between atoms: _128  and  _131
REMARK   57  A    between atoms: _134  and  _136
REMARK   58  A    between atoms: _136  and  _137
REMARK   59  A    between atoms: _136  and  _139
REMARK   60  A    between atoms: _139  and  _140
REMARK   61  A    between atoms: _140  and  _141
REMARK   62  A    between atoms: _143  and  _145
REMARK   63  A    between atoms: _145  and  _146
REMARK   64  A    between atoms: _145  and  _148
REMARK   65  A    between atoms: _148  and  _149
REMARK   66  A    between atoms: _152  and  _154
REMARK   67  A    between atoms: _154  and  _155
REMARK   68  A    between atoms: _158  and  _160
REMARK   69  A    between atoms: _160  and  _161
REMARK   70  A    between atoms: _160  and  _163
REMARK   71  A    between atoms: _163  and  _164
REMARK   72  A    between atoms: _169  and  _171
REMARK   73  A    between atoms: _171  and  _172
REMARK   74  A    between atoms: _171  and  _174
REMARK   75  A    between atoms: _174  and  _175
REMARK   76  A    between atoms: _178  and  _180
REMARK   77  A    between atoms: _180  and  _181
REMARK   78  A    between atoms: _180  and  _183
REMARK   79  A    between atoms: _183  and  _184
REMARK   80  A    between atoms: _184  and  _185
REMARK   81  A    between atoms: _188  and  _190
REMARK   82  A    between atoms: _190  and  _191
REMARK   83  A    between atoms: _193  and  _195
REMARK   84  A    between atoms: _195  and  _196
REMARK   85  A    between atoms: _195  and  _198
REMARK   86  A    between atoms: _198  and  _199
REMARK   87  A    between atoms: _199  and  _200
REMARK   88  A    between atoms: _200  and  _201
REMARK   89  A    between atoms: _210  and  _212
REMARK   90  A    between atoms: _212  and  _213
REMARK   91  A    between atoms: _212  and  _215
REMARK   92  A    between atoms: _215  and  _216
REMARK   93  A    between atoms: _216  and  _217
REMARK   94  A    between atoms: _217  and  _218
REMARK   95  A    between atoms: _218  and  _219
REMARK   96  A    between atoms: _223  and  _225
REMARK   97  A    between atoms: _225  and  _226
REMARK   98  A    between atoms: _225  and  _228
REMARK   99  A    between atoms: _228  and  _229
REMARK  100  A    between atoms: _235  and  _237
REMARK  101  A    between atoms: _237  and  _238
REMARK  102  A    between atoms: _237  and  _240
REMARK  103  A    between atoms: _240  and  _241
REMARK  104  A    between atoms: _247  and  _249
REMARK  105  A    between atoms: _249  and  _250
REMARK  106  A    between atoms: _249  and  _252
REMARK  107  A    between atoms: _252  and  _253
REMARK  108  A    between atoms: _256  and  _258
REMARK  109  A    between atoms: _258  and  _259
REMARK  110  A    between atoms: _258  and  _261
REMARK  111  A    between atoms: _261  and  _262
REMARK  112  A    between atoms: _268  and  _270
REMARK  113  A    between atoms: _270  and  _271
REMARK  114  A    between atoms: _270  and  _273
REMARK  115  A    between atoms: _273  and  _274
REMARK  116  A    between atoms: _277  and  _279
REMARK  117  A    between atoms: _279  and  _280
REMARK  118  A    between atoms: _279  and  _282
REMARK  119  A    between atoms: _282  and  _283
REMARK  120  A    between atoms: _283  and  _284
REMARK  121  A    between atoms: _284  and  _285
REMARK  122  A    between atoms: _285  and  _286
REMARK  123  A    between atoms: _290  and  _292
REMARK  124  A    between atoms: _292  and  _293
REMARK  125  A    between atoms: _292  and  _295
REMARK  126  A    between atoms: _295  and  _296
REMARK  127  A    between atoms: _299  and  _301
REMARK  128  A    between atoms: _301  and  _302
REMARK  129  A    between atoms: _301  and  _304
REMARK  130  A    between atoms: _304  and  _305
REMARK  131  A    between atoms: _310  and  _312
REMARK  132  A    between atoms: _312  and  _313
REMARK  133  A    between atoms: _312  and  _315
REMARK  134  A    between atoms: _315  and  _316
REMARK  135  A    between atoms: _316  and  _317
REMARK  136  A    between atoms: _317  and  _318
REMARK  137  A    between atoms: _318  and  _319
REMARK  138  A    between atoms: _323  and  _325
REMARK  139  A    between atoms: _325  and  _326
REMARK  140  A    between atoms: _325  and  _328
REMARK  141  A    between atoms: _328  and  _329
REMARK  142  A    between atoms: _331  and  _333
REMARK  143  A    between atoms: _333  and  _334
REMARK  144  A    between atoms: _333  and  _336
REMARK  145  A    between atoms: _336  and  _337
REMARK  146  A    between atoms: _340  and  _342
REMARK  147  A    between atoms: _342  and  _343
REMARK  148  A    between atoms: _342  and  _345
REMARK  149  A    between atoms: _345  and  _346
REMARK  150  A    between atoms: _346  and  _347
REMARK  151  A    between atoms: _350  and  _352
REMARK  152  A    between atoms: _352  and  _353
REMARK  153  A    between atoms: _356  and  _357
REMARK  154  A    between atoms: _363  and  _364
REMARK  155  A    between atoms: _369  and  _371
REMARK  156  A    between atoms: _371  and  _372
REMARK  157  A    between atoms: _371  and  _374
REMARK  158  A    between atoms: _374  and  _375
REMARK  159  A    between atoms: _381  and  _383
REMARK  160  A    between atoms: _383  and  _384
REMARK  161  A    between atoms: _383  and  _386
REMARK  162  A    between atoms: _386  and  _387
REMARK  163  A    between atoms: _390  and  _392
REMARK  164  A    between atoms: _392  and  _393
REMARK  165  A    between atoms: _392  and  _395
REMARK  166  A    between atoms: _395  and  _396
REMARK  167  A    between atoms: _401  and  _403
REMARK  168  A    between atoms: _403  and  _404
REMARK  169  A    between atoms: _406  and  _408
REMARK  170  A    between atoms: _408  and  _409
REMARK  171  A    between atoms: _411  and  _413
REMARK  172  A    between atoms: _413  and  _414
REMARK  173  A    between atoms: _417  and  _419
REMARK  174  A    between atoms: _419  and  _420
REMARK  175  A    between atoms: _419  and  _422
REMARK  176  A    between atoms: _422  and  _423
REMARK  177  A    between atoms: _426  and  _428
REMARK  178  A    between atoms: _428  and  _429
REMARK  179  A    between atoms: _432  and  _434
REMARK  180  A    between atoms: _434  and  _435
REMARK  181  A    between atoms: _434  and  _437
REMARK  182  A    between atoms: _437  and  _438
REMARK  183  A    between atoms: _443  and  _445
REMARK  184  A    between atoms: _445  and  _446
REMARK  185  A    between atoms: _445  and  _448
REMARK  186  A    between atoms: _448  and  _449
REMARK  187  A    between atoms: _452  and  _454
REMARK  188  A    between atoms: _454  and  _455
REMARK  189  A    between atoms: _454  and  _457
REMARK  190  A    between atoms: _457  and  _458
REMARK  191  A    between atoms: _463  and  _465
REMARK  192  A    between atoms: _465  and  _466
REMARK  193  A    between atoms: _465  and  _468
REMARK  194  A    between atoms: _468  and  _469
REMARK  195  A    between atoms: _474  and  _475
REMARK  196  A    between atoms: _477  and  _479
REMARK  197  A    between atoms: _479  and  _480
REMARK  198  A    between atoms: _479  and  _482
REMARK  199  A    between atoms: _482  and  _483
REMARK  200  A    between atoms: _483  and  _484
REMARK  201  A    between atoms: _484  and  _485
REMARK  202  A    between atoms: _485  and  _486
REMARK  203  A    between atoms: _490  and  _492
REMARK  204  A    between atoms: _492  and  _493
REMARK  205  A    between atoms: _492  and  _495
REMARK  206  A    between atoms: _495  and  _496
REMARK  207  A    between atoms: _496  and  _497
REMARK  208  A    between atoms: _497  and  _498
REMARK  209  A    between atoms: _508  and  _509
REMARK  210  A    between atoms: _514  and  _516
REMARK  211  A    between atoms: _516  and  _517
REMARK  212  A    between atoms: _516  and  _519
REMARK  213  A    between atoms: _519  and  _520
REMARK  214  A    between atoms: _524  and  _525
REMARK  215  A    between atoms: _530  and  _532
REMARK  216  A    between atoms: _532  and  _533
REMARK  217  A    between atoms: _532  and  _535
REMARK  218  A    between atoms: _535  and  _536
REMARK  219  A    between atoms: _539  and  _541
REMARK  220  A    between atoms: _541  and  _542
REMARK  221  A    between atoms: _541  and  _544
REMARK  222  A    between atoms: _544  and  _545
REMARK  223  A    between atoms: _550  and  _551
REMARK  224  A    between atoms: _553  and  _555
REMARK  225  A    between atoms: _555  and  _556
REMARK  226  A    between atoms: _555  and  _558
REMARK  227  A    between atoms: _558  and  _559
REMARK  228  A    between atoms: _561  and  _563
REMARK  229  A    between atoms: _563  and  _564
REMARK  230  A    between atoms: _563  and  _566
REMARK  231  A    between atoms: _566  and  _567
REMARK  232  A    between atoms: _567  and  _568
REMARK                            x       y       z     vdW  Elec       q    Type
REMARK                         _______ _______ _______ _____ _____    ______ ____
ROOT
ATOM      1  O   HOH     1      22.380  59.861  31.477  0.00  0.00    +0.000 OA
ENDROOT
TORSDOF 0
REMARK  Name = ../refined-set-2016/4gah/4gah_pocket.pdb
REMARK  232 active torsions:
REMARK  status: ('A' for Active; 'I' for Inactive)
REMARK    1  A    between atoms: _1  and  _3
REMARK    2  A    between atoms: _3  and  _4
REMARK    3  A    between atoms: _3  and  _6
REMARK    4  A    between atoms: _6  and  _7
REMARK    5  A    between atoms: _7  and  _8
REMARK    6  A    between atoms: _8  and  _9
REMARK    7  A    between atoms: _18  and  _20
REMARK    8  A    between atoms: _20  and  _21
REMARK    9  A    between atoms: _20  and  _23
REMARK   10  A    between atoms: _23  and  _24
REMARK   11  A    between atoms: _27  and  _29
REMARK   12  A    between atoms: _29  and  _30
REMARK   13  A    between atoms: _29  and  _32
REMARK   14  A    between atoms: _32  and  _33
REMARK   15  A    between atoms: _39  and  _41
REMARK   16  A    between atoms: _41  and  _42
REMARK   17  A    between atoms: _41  and  _44
REMARK   18  A    between atoms: _44  and  _45
REMARK   19  A    between atoms: _48  and  _50
REMARK   20  A    between atoms: _50  and  _51
REMARK   21  A    between atoms: _50  and  _53
REMARK   22  A    between atoms: _53  and  _54
REMARK   23  A    between atoms: _57  and  _59
REMARK   24  A    between atoms: _59  and  _60
REMARK   25  A    between atoms: _59  and  _62
REMARK   26  A    between atoms: _62  and  _63
REMARK   27  A    between atoms: _66  and  _68
REMARK   28  A    between atoms: _68  and  _69
REMARK   29  A    between atoms: _72  and  _74
REMARK   30  A    between atoms: _74  and  _75
REMARK   31  A    between atoms: _74  and  _77
REMARK   32  A    between atoms: _77  and  _78
REMARK   33  A    between atoms: _81  and  _83
REMARK   34  A    between atoms: _83  and  _84
REMARK   35  A    between atoms: _83  and  _86
REMARK   36  A    between atoms: _89  and  _91
REMARK   37  A    between atoms: _91  and  _92
REMARK   38  A    between atoms: _94  and  _96
REMARK   39  A    between atoms: _96  and  _97
REMARK   40  A    between atoms: _96  and  _99
REMARK   41  A    between atoms: _99  and  _100
REMARK   42  A    between atoms: _100  and  _101
REMARK   43  A    between atoms: _103  and  _105
REMARK   44  A    between atoms: _105  and  _106
REMARK   45  A    between atoms: _105  and  _108
REMARK   46  A    between atoms: _108  and  _109
REMARK   47  A    between atoms: _109  and  _110
REMARK   48  A    between atoms: _112  and  _114
REMARK   49  A    between atoms: _114  and  _115
REMARK   50  A    between atoms: _117  and  _119
REMARK   51  A    between atoms: _119  and  _120
REMARK   52  A    between atoms: _119  and  _122
REMARK   53  A    between atoms: _122  and  _123
REMARK   54  A    between atoms: _126  and  _128
REMARK   55  A    between atoms: _128  and  _129
REMARK   56  A    between atoms: _128  and  _131
REMARK   57  A    between atoms: _134  and  _136
REMARK   58  A    between atoms: _136  and  _137
REMARK   59  A    between atoms: _136  and  _139
REMARK   60  A    between atoms: _139  and  _140
REMARK   61  A    between atoms: _140  and  _141
REMARK   62  A    between atoms: _143  and  _145
REMARK   63  A    between atoms: _145  and  _146
REMARK   64  A    between atoms: _145  and  _148
REMARK   65  A    between atoms: _148  and  _149
REMARK   66  A    between atoms: _152  and  _154
REMARK   67  A    between atoms: _154  and  _155
REMARK   68  A    between atoms: _158  and  _160
REMARK   69  A    between atoms: _160  and  _161
REMARK   70  A    between atoms: _160  and  _163
REMARK   71  A    between atoms: _163  and  _164
REMARK   72  A    between atoms: _169  and  _171
REMARK   73  A    between atoms: _171  and  _172
REMARK   74  A    between atoms: _171  and  _174
REMARK   75  A    between atoms: _174  and  _175
REMARK   76  A    between atoms: _178  and  _180
REMARK   77  A    between atoms: _180  and  _181
REMARK   78  A    between atoms: _180  and  _183
REMARK   79  A    between atoms: _183  and  _184
REMARK   80  A    between atoms: _184  and  _185
REMARK   81  A    between atoms: _188  and  _190
REMARK   82  A    between atoms: _190  and  _191
REMARK   83  A    between atoms: _193  and  _195
REMARK   84  A    between atoms: _195  and  _196
REMARK   85  A    between atoms: _195  and  _198
REMARK   86  A    between atoms: _198  and  _199
REMARK   87  A    between atoms: _199  and  _200
REMARK   88  A    between atoms: _200  and  _201
REMARK   89  A    between atoms: _210  and  _212
REMARK   90  A    between atoms: _212  and  _213
REMARK   91  A    between atoms: _212  and  _215
REMARK   92  A    between atoms: _215  and  _216
REMARK   93  A    between atoms: _216  and  _217
REMARK   94  A    between atoms: _217  and  _218
REMARK   95  A    between atoms: _218  and  _219
REMARK   96  A    between atoms: _223  and  _225
REMARK   97  A    between atoms: _225  and  _226
REMARK   98  A    between atoms: _225  and  _228
REMARK   99  A    between atoms: _228  and  _229
REMARK  100  A    between atoms: _235  and  _237
REMARK  101  A    between atoms: _237  and  _238
REMARK  102  A    between atoms: _237  and  _240
REMARK  103  A    between atoms: _240  and  _241
REMARK  104  A    between atoms: _247  and  _249
REMARK  105  A    between atoms: _249  and  _250
REMARK  106  A    between atoms: _249  and  _252
REMARK  107  A    between atoms: _252  and  _253
REMARK  108  A    between atoms: _256  and  _258
REMARK  109  A    between atoms: _258  and  _259
REMARK  110  A    between atoms: _258  and  _261
REMARK  111  A    between atoms: _261  and  _262
REMARK  112  A    between atoms: _268  and  _270
REMARK  113  A    between atoms: _270  and  _271
REMARK  114  A    between atoms: _270  and  _273
REMARK  115  A    between atoms: _273  and  _274
REMARK  116  A    between atoms: _277  and  _279
REMARK  117  A    between atoms: _279  and  _280
REMARK  118  A    between atoms: _279  and  _282
REMARK  119  A    between atoms: _282  and  _283
REMARK  120  A    between atoms: _283  and  _284
REMARK  121  A    between atoms: _284  and  _285
REMARK  122  A    between atoms: _285  and  _286
REMARK  123  A    between atoms: _290  and  _292
REMARK  124  A    between atoms: _292  and  _293
REMARK  125  A    between atoms: _292  and  _295
REMARK  126  A    between atoms: _295  and  _296
REMARK  127  A    between atoms: _299  and  _301
REMARK  128  A    between atoms: _301  and  _302
REMARK  129  A    between atoms: _301  and  _304
REMARK  130  A    between atoms: _304  and  _305
REMARK  131  A    between atoms: _310  and  _312
REMARK  132  A    between atoms: _312  and  _313
REMARK  133  A    between atoms: _312  and  _315
REMARK  134  A    between atoms: _315  and  _316
REMARK  135  A    between atoms: _316  and  _317
REMARK  136  A    between atoms: _317  and  _318
REMARK  137  A    between atoms: _318  and  _319
REMARK  138  A    between atoms: _323  and  _325
REMARK  139  A    between atoms: _325  and  _326
REMARK  140  A    between atoms: _325  and  _328
REMARK  141  A    between atoms: _328  and  _329
REMARK  142  A    between atoms: _331  and  _333
REMARK  143  A    between atoms: _333  and  _334
REMARK  144  A    between atoms: _333  and  _336
REMARK  145  A    between atoms: _336  and  _337
REMARK  146  A    between atoms: _340  and  _342
REMARK  147  A    between atoms: _342  and  _343
REMARK  148  A    between atoms: _342  and  _345
REMARK  149  A    between atoms: _345  and  _346
REMARK  150  A    between atoms: _346  and  _347
REMARK  151  A    between atoms: _350  and  _352
REMARK  152  A    between atoms: _352  and  _353
REMARK  153  A    between atoms: _356  and  _357
REMARK  154  A    between atoms: _363  and  _364
REMARK  155  A    between atoms: _369  and  _371
REMARK  156  A    between atoms: _371  and  _372
REMARK  157  A    between atoms: _371  and  _374
REMARK  158  A    between atoms: _374  and  _375
REMARK  159  A    between atoms: _381  and  _383
REMARK  160  A    between atoms: _383  and  _384
REMARK  161  A    between atoms: _383  and  _386
REMARK  162  A    between atoms: _386  and  _387
REMARK  163  A    between atoms: _390  and  _392
REMARK  164  A    between atoms: _392  and  _393
REMARK  165  A    between atoms: _392  and  _395
REMARK  166  A    between atoms: _395  and  _396
REMARK  167  A    between atoms: _401  and  _403
REMARK  168  A    between atoms: _403  and  _404
REMARK  169  A    between atoms: _406  and  _408
REMARK  170  A    between atoms: _408  and  _409
REMARK  171  A    between atoms: _411  and  _413
REMARK  172  A    between atoms: _413  and  _414
REMARK  173  A    between atoms: _417  and  _419
REMARK  174  A    between atoms: _419  and  _420
REMARK  175  A    between atoms: _419  and  _422
REMARK  176  A    between atoms: _422  and  _423
REMARK  177  A    between atoms: _426  and  _428
REMARK  178  A    between atoms: _428  and  _429
REMARK  179  A    between atoms: _432  and  _434
REMARK  180  A    between atoms: _434  and  _435
REMARK  181  A    between atoms: _434  and  _437
REMARK  182  A    between atoms: _437  and  _438
REMARK  183  A    between atoms: _443  and  _445
REMARK  184  A    between atoms: _445  and  _446
REMARK  185  A    between atoms: _445  and  _448
REMARK  186  A    between atoms: _448  and  _449
REMARK  187  A    between atoms: _452  and  _454
REMARK  188  A    between atoms: _454  and  _455
REMARK  189  A    between atoms: _454  and  _457
REMARK  190  A    between atoms: _457  and  _458
REMARK  191  A    between atoms: _463  and  _465
REMARK  192  A    between atoms: _465  and  _466
REMARK  193  A    between atoms: _465  and  _468
REMARK  194  A    between atoms: _468  and  _469
REMARK  195  A    between atoms: _474  and  _475
REMARK  196  A    between atoms: _477  and  _479
REMARK  197  A    between atoms: _479  and  _480
REMARK  198  A    between atoms: _479  and  _482
REMARK  199  A    between atoms: _482  and  _483
REMARK  200  A    between atoms: _483  and  _484
REMARK  201  A    between atoms: _484  and  _485
REMARK  202  A    between atoms: _485  and  _486
REMARK  203  A    between atoms: _490  and  _492
REMARK  204  A    between atoms: _492  and  _493
REMARK  205  A    between atoms: _492  and  _495
REMARK  206  A    between atoms: _495  and  _496
REMARK  207  A    between atoms: _496  and  _497
REMARK  208  A    between atoms: _497  and  _498
REMARK  209  A    between atoms: _508  and  _509
REMARK  210  A    between atoms: _514  and  _516
REMARK  211  A    between atoms: _516  and  _517
REMARK  212  A    between atoms: _516  and  _519
REMARK  213  A    between atoms: _519  and  _520
REMARK  214  A    between atoms: _524  and  _525
REMARK  215  A    between atoms: _530  and  _532
REMARK  216  A    between atoms: _532  and  _533
REMARK  217  A    between atoms: _532  and  _535
REMARK  218  A    between atoms: _535  and  _536
REMARK  219  A    between atoms: _539  and  _541
REMARK  220  A    between atoms: _541  and  _542
REMARK  221  A    between atoms: _541  and  _544
REMARK  222  A    between atoms: _544  and  _545
REMARK  223  A    between atoms: _550  and  _551
REMARK  224  A    between atoms: _553  and  _555
REMARK  225  A    between atoms: _555  and  _556
REMARK  226  A    between atoms: _555  and  _558
REMARK  227  A    between atoms: _558  and  _559
REMARK  228  A    between atoms: _561  and  _563
REMARK  229  A    between atoms: _563  and  _564
REMARK  230  A    between atoms: _563  and  _566
REMARK  231  A    between atoms: _566  and  _567
REMARK  232  A    between atoms: _567  and  _568
REMARK                            x       y       z     vdW  Elec       q    Type
REMARK                         _______ _______ _______ _____ _____    ______ ____
ROOT
ATOM      1  O   HOH     1      21.344  70.639  29.660  0.00  0.00    +0.000 OA
ENDROOT
TORSDOF 0
REMARK  Name = ../refined-set-2016/4gah/4gah_pocket.pdb
REMARK  232 active torsions:
REMARK  status: ('A' for Active; 'I' for Inactive)
REMARK    1  A    between atoms: _1  and  _3
REMARK    2  A    between atoms: _3  and  _4
REMARK    3  A    between atoms: _3  and  _6
REMARK    4  A    between atoms: _6  and  _7
REMARK    5  A    between atoms: _7  and  _8
REMARK    6  A    between atoms: _8  and  _9
REMARK    7  A    between atoms: _18  and  _20
REMARK    8  A    between atoms: _20  and  _21
REMARK    9  A    between atoms: _20  and  _23
REMARK   10  A    between atoms: _23  and  _24
REMARK   11  A    between atoms: _27  and  _29
REMARK   12  A    between atoms: _29  and  _30
REMARK   13  A    between atoms: _29  and  _32
REMARK   14  A    between atoms: _32  and  _33
REMARK   15  A    between atoms: _39  and  _41
REMARK   16  A    between atoms: _41  and  _42
REMARK   17  A    between atoms: _41  and  _44
REMARK   18  A    between atoms: _44  and  _45
REMARK   19  A    between atoms: _48  and  _50
REMARK   20  A    between atoms: _50  and  _51
REMARK   21  A    between atoms: _50  and  _53
REMARK   22  A    between atoms: _53  and  _54
REMARK   23  A    between atoms: _57  and  _59
REMARK   24  A    between atoms: _59  and  _60
REMARK   25  A    between atoms: _59  and  _62
REMARK   26  A    between atoms: _62  and  _63
REMARK   27  A    between atoms: _66  and  _68
REMARK   28  A    between atoms: _68  and  _69
REMARK   29  A    between atoms: _72  and  _74
REMARK   30  A    between atoms: _74  and  _75
REMARK   31  A    between atoms: _74  and  _77
REMARK   32  A    between atoms: _77  and  _78
REMARK   33  A    between atoms: _81  and  _83
REMARK   34  A    between atoms: _83  and  _84
REMARK   35  A    between atoms: _83  and  _86
REMARK   36  A    between atoms: _89  and  _91
REMARK   37  A    between atoms: _91  and  _92
REMARK   38  A    between atoms: _94  and  _96
REMARK   39  A    between atoms: _96  and  _97
REMARK   40  A    between atoms: _96  and  _99
REMARK   41  A    between atoms: _99  and  _100
REMARK   42  A    between atoms: _100  and  _101
REMARK   43  A    between atoms: _103  and  _105
REMARK   44  A    between atoms: _105  and  _106
REMARK   45  A    between atoms: _105  and  _108
REMARK   46  A    between atoms: _108  and  _109
REMARK   47  A    between atoms: _109  and  _110
REMARK   48  A    between atoms: _112  and  _114
REMARK   49  A    between atoms: _114  and  _115
REMARK   50  A    between atoms: _117  and  _119
REMARK   51  A    between atoms: _119  and  _120
REMARK   52  A    between atoms: _119  and  _122
REMARK   53  A    between atoms: _122  and  _123
REMARK   54  A    between atoms: _126  and  _128
REMARK   55  A    between atoms: _128  and  _129
REMARK   56  A    between atoms: _128  and  _131
REMARK   57  A    between atoms: _134  and  _136
REMARK   58  A    between atoms: _136  and  _137
REMARK   59  A    between atoms: _136  and  _139
REMARK   60  A    between atoms: _139  and  _140
REMARK   61  A    between atoms: _140  and  _141
REMARK   62  A    between atoms: _143  and  _145
REMARK   63  A    between atoms: _145  and  _146
REMARK   64  A    between atoms: _145  and  _148
REMARK   65  A    between atoms: _148  and  _149
REMARK   66  A    between atoms: _152  and  _154
REMARK   67  A    between atoms: _154  and  _155
REMARK   68  A    between atoms: _158  and  _160
REMARK   69  A    between atoms: _160  and  _161
REMARK   70  A    between atoms: _160  and  _163
REMARK   71  A    between atoms: _163  and  _164
REMARK   72  A    between atoms: _169  and  _171
REMARK   73  A    between atoms: _171  and  _172
REMARK   74  A    between atoms: _171  and  _174
REMARK   75  A    between atoms: _174  and  _175
REMARK   76  A    between atoms: _178  and  _180
REMARK   77  A    between atoms: _180  and  _181
REMARK   78  A    between atoms: _180  and  _183
REMARK   79  A    between atoms: _183  and  _184
REMARK   80  A    between atoms: _184  and  _185
REMARK   81  A    between atoms: _188  and  _190
REMARK   82  A    between atoms: _190  and  _191
REMARK   83  A    between atoms: _193  and  _195
REMARK   84  A    between atoms: _195  and  _196
REMARK   85  A    between atoms: _195  and  _198
REMARK   86  A    between atoms: _198  and  _199
REMARK   87  A    between atoms: _199  and  _200
REMARK   88  A    between atoms: _200  and  _201
REMARK   89  A    between atoms: _210  and  _212
REMARK   90  A    between atoms: _212  and  _213
REMARK   91  A    between atoms: _212  and  _215
REMARK   92  A    between atoms: _215  and  _216
REMARK   93  A    between atoms: _216  and  _217
REMARK   94  A    between atoms: _217  and  _218
REMARK   95  A    between atoms: _218  and  _219
REMARK   96  A    between atoms: _223  and  _225
REMARK   97  A    between atoms: _225  and  _226
REMARK   98  A    between atoms: _225  and  _228
REMARK   99  A    between atoms: _228  and  _229
REMARK  100  A    between atoms: _235  and  _237
REMARK  101  A    between atoms: _237  and  _238
REMARK  102  A    between atoms: _237  and  _240
REMARK  103  A    between atoms: _240  and  _241
REMARK  104  A    between atoms: _247  and  _249
REMARK  105  A    between atoms: _249  and  _250
REMARK  106  A    between atoms: _249  and  _252
REMARK  107  A    between atoms: _252  and  _253
REMARK  108  A    between atoms: _256  and  _258
REMARK  109  A    between atoms: _258  and  _259
REMARK  110  A    between atoms: _258  and  _261
REMARK  111  A    between atoms: _261  and  _262
REMARK  112  A    between atoms: _268  and  _270
REMARK  113  A    between atoms: _270  and  _271
REMARK  114  A    between atoms: _270  and  _273
REMARK  115  A    between atoms: _273  and  _274
REMARK  116  A    between atoms: _277  and  _279
REMARK  117  A    between atoms: _279  and  _280
REMARK  118  A    between atoms: _279  and  _282
REMARK  119  A    between atoms: _282  and  _283
REMARK  120  A    between atoms: _283  and  _284
REMARK  121  A    between atoms: _284  and  _285
REMARK  122  A    between atoms: _285  and  _286
REMARK  123  A    between atoms: _290  and  _292
REMARK  124  A    between atoms: _292  and  _293
REMARK  125  A    between atoms: _292  and  _295
REMARK  126  A    between atoms: _295  and  _296
REMARK  127  A    between atoms: _299  and  _301
REMARK  128  A    between atoms: _301  and  _302
REMARK  129  A    between atoms: _301  and  _304
REMARK  130  A    between atoms: _304  and  _305
REMARK  131  A    between atoms: _310  and  _312
REMARK  132  A    between atoms: _312  and  _313
REMARK  133  A    between atoms: _312  and  _315
REMARK  134  A    between atoms: _315  and  _316
REMARK  135  A    between atoms: _316  and  _317
REMARK  136  A    between atoms: _317  and  _318
REMARK  137  A    between atoms: _318  and  _319
REMARK  138  A    between atoms: _323  and  _325
REMARK  139  A    between atoms: _325  and  _326
REMARK  140  A    between atoms: _325  and  _328
REMARK  141  A    between atoms: _328  and  _329
REMARK  142  A    between atoms: _331  and  _333
REMARK  143  A    between atoms: _333  and  _334
REMARK  144  A    between atoms: _333  and  _336
REMARK  145  A    between atoms: _336  and  _337
REMARK  146  A    between atoms: _340  and  _342
REMARK  147  A    between atoms: _342  and  _343
REMARK  148  A    between atoms: _342  and  _345
REMARK  149  A    between atoms: _345  and  _346
REMARK  150  A    between atoms: _346  and  _347
REMARK  151  A    between atoms: _350  and  _352
REMARK  152  A    between atoms: _352  and  _353
REMARK  153  A    between atoms: _356  and  _357
REMARK  154  A    between atoms: _363  and  _364
REMARK  155  A    between atoms: _369  and  _371
REMARK  156  A    between atoms: _371  and  _372
REMARK  157  A    between atoms: _371  and  _374
REMARK  158  A    between atoms: _374  and  _375
REMARK  159  A    between atoms: _381  and  _383
REMARK  160  A    between atoms: _383  and  _384
REMARK  161  A    between atoms: _383  and  _386
REMARK  162  A    between atoms: _386  and  _387
REMARK  163  A    between atoms: _390  and  _392
REMARK  164  A    between atoms: _392  and  _393
REMARK  165  A    between atoms: _392  and  _395
REMARK  166  A    between atoms: _395  and  _396
REMARK  167  A    between atoms: _401  and  _403
REMARK  168  A    between atoms: _403  and  _404
REMARK  169  A    between atoms: _406  and  _408
REMARK  170  A    between atoms: _408  and  _409
REMARK  171  A    between atoms: _411  and  _413
REMARK  172  A    between atoms: _413  and  _414
REMARK  173  A    between atoms: _417  and  _419
REMARK  174  A    between atoms: _419  and  _420
REMARK  175  A    between atoms: _419  and  _422
REMARK  176  A    between atoms: _422  and  _423
REMARK  177  A    between atoms: _426  and  _428
REMARK  178  A    between atoms: _428  and  _429
REMARK  179  A    between atoms: _432  and  _434
REMARK  180  A    between atoms: _434  and  _435
REMARK  181  A    between atoms: _434  and  _437
REMARK  182  A    between atoms: _437  and  _438
REMARK  183  A    between atoms: _443  and  _445
REMARK  184  A    between atoms: _445  and  _446
REMARK  185  A    between atoms: _445  and  _448
REMARK  186  A    between atoms: _448  and  _449
REMARK  187  A    between atoms: _452  and  _454
REMARK  188  A    between atoms: _454  and  _455
REMARK  189  A    between atoms: _454  and  _457
REMARK  190  A    between atoms: _457  and  _458
REMARK  191  A    between atoms: _463  and  _465
REMARK  192  A    between atoms: _465  and  _466
REMARK  193  A    between atoms: _465  and  _468
REMARK  194  A    between atoms: _468  and  _469
REMARK  195  A    between atoms: _474  and  _475
REMARK  196  A    between atoms: _477  and  _479
REMARK  197  A    between atoms: _479  and  _480
REMARK  198  A    between atoms: _479  and  _482
REMARK  199  A    between atoms: _482  and  _483
REMARK  200  A    between atoms: _483  and  _484
REMARK  201  A    between atoms: _484  and  _485
REMARK  202  A    between atoms: _485  and  _486
REMARK  203  A    between atoms: _490  and  _492
REMARK  204  A    between atoms: _492  and  _493
REMARK  205  A    between atoms: _492  and  _495
REMARK  206  A    between atoms: _495  and  _496
REMARK  207  A    between atoms: _496  and  _497
REMARK  208  A    between atoms: _497  and  _498
REMARK  209  A    between atoms: _508  and  _509
REMARK  210  A    between atoms: _514  and  _516
REMARK  211  A    between atoms: _516  and  _517
REMARK  212  A    between atoms: _516  and  _519
REMARK  213  A    between atoms: _519  and  _520
REMARK  214  A    between atoms: _524  and  _525
REMARK  215  A    between atoms: _530  and  _532
REMARK  216  A    between atoms: _532  and  _533
REMARK  217  A    between atoms: _532  and  _535
REMARK  218  A    between atoms: _535  and  _536
REMARK  219  A    between atoms: _539  and  _541
REMARK  220  A    between atoms: _541  and  _542
REMARK  221  A    between atoms: _541  and  _544
REMARK  222  A    between atoms: _544  and  _545
REMARK  223  A    between atoms: _550  and  _551
REMARK  224  A    between atoms: _553  and  _555
REMARK  225  A    between atoms: _555  and  _556
REMARK  226  A    between atoms: _555  and  _558
REMARK  227  A    between atoms: _558  and  _559
REMARK  228  A    between atoms: _561  and  _563
REMARK  229  A    between atoms: _563  and  _564
REMARK  230  A    between atoms: _563  and  _566
REMARK  231  A    between atoms: _566  and  _567
REMARK  232  A    between atoms: _567  and  _568
REMARK                            x       y       z     vdW  Elec       q    Type
REMARK                         _______ _______ _______ _____ _____    ______ ____
ROOT
ATOM      1  O   HOH     1      39.483  59.994  31.241  0.00  0.00    +0.000 OA
ENDROOT
TORSDOF 0
REMARK  Name = ../refined-set-2016/4gah/4gah_pocket.pdb
REMARK  232 active torsions:
REMARK  status: ('A' for Active; 'I' for Inactive)
REMARK    1  A    between atoms: _1  and  _3
REMARK    2  A    between atoms: _3  and  _4
REMARK    3  A    between atoms: _3  and  _6
REMARK    4  A    between atoms: _6  and  _7
REMARK    5  A    between atoms: _7  and  _8
REMARK    6  A    between atoms: _8  and  _9
REMARK    7  A    between atoms: _18  and  _20
REMARK    8  A    between atoms: _20  and  _21
REMARK    9  A    between atoms: _20  and  _23
REMARK   10  A    between atoms: _23  and  _24
REMARK   11  A    between atoms: _27  and  _29
REMARK   12  A    between atoms: _29  and  _30
REMARK   13  A    between atoms: _29  and  _32
REMARK   14  A    between atoms: _32  and  _33
REMARK   15  A    between atoms: _39  and  _41
REMARK   16  A    between atoms: _41  and  _42
REMARK   17  A    between atoms: _41  and  _44
REMARK   18  A    between atoms: _44  and  _45
REMARK   19  A    between atoms: _48  and  _50
REMARK   20  A    between atoms: _50  and  _51
REMARK   21  A    between atoms: _50  and  _53
REMARK   22  A    between atoms: _53  and  _54
REMARK   23  A    between atoms: _57  and  _59
REMARK   24  A    between atoms: _59  and  _60
REMARK   25  A    between atoms: _59  and  _62
REMARK   26  A    between atoms: _62  and  _63
REMARK   27  A    between atoms: _66  and  _68
REMARK   28  A    between atoms: _68  and  _69
REMARK   29  A    between atoms: _72  and  _74
REMARK   30  A    between atoms: _74  and  _75
REMARK   31  A    between atoms: _74  and  _77
REMARK   32  A    between atoms: _77  and  _78
REMARK   33  A    between atoms: _81  and  _83
REMARK   34  A    between atoms: _83  and  _84
REMARK   35  A    between atoms: _83  and  _86
REMARK   36  A    between atoms: _89  and  _91
REMARK   37  A    between atoms: _91  and  _92
REMARK   38  A    between atoms: _94  and  _96
REMARK   39  A    between atoms: _96  and  _97
REMARK   40  A    between atoms: _96  and  _99
REMARK   41  A    between atoms: _99  and  _100
REMARK   42  A    between atoms: _100  and  _101
REMARK   43  A    between atoms: _103  and  _105
REMARK   44  A    between atoms: _105  and  _106
REMARK   45  A    between atoms: _105  and  _108
REMARK   46  A    between atoms: _108  and  _109
REMARK   47  A    between atoms: _109  and  _110
REMARK   48  A    between atoms: _112  and  _114
REMARK   49  A    between atoms: _114  and  _115
REMARK   50  A    between atoms: _117  and  _119
REMARK   51  A    between atoms: _119  and  _120
REMARK   52  A    between atoms: _119  and  _122
REMARK   53  A    between atoms: _122  and  _123
REMARK   54  A    between atoms: _126  and  _128
REMARK   55  A    between atoms: _128  and  _129
REMARK   56  A    between atoms: _128  and  _131
REMARK   57  A    between atoms: _134  and  _136
REMARK   58  A    between atoms: _136  and  _137
REMARK   59  A    between atoms: _136  and  _139
REMARK   60  A    between atoms: _139  and  _140
REMARK   61  A    between atoms: _140  and  _141
REMARK   62  A    between atoms: _143  and  _145
REMARK   63  A    between atoms: _145  and  _146
REMARK   64  A    between atoms: _145  and  _148
REMARK   65  A    between atoms: _148  and  _149
REMARK   66  A    between atoms: _152  and  _154
REMARK   67  A    between atoms: _154  and  _155
REMARK   68  A    between atoms: _158  and  _160
REMARK   69  A    between atoms: _160  and  _161
REMARK   70  A    between atoms: _160  and  _163
REMARK   71  A    between atoms: _163  and  _164
REMARK   72  A    between atoms: _169  and  _171
REMARK   73  A    between atoms: _171  and  _172
REMARK   74  A    between atoms: _171  and  _174
REMARK   75  A    between atoms: _174  and  _175
REMARK   76  A    between atoms: _178  and  _180
REMARK   77  A    between atoms: _180  and  _181
REMARK   78  A    between atoms: _180  and  _183
REMARK   79  A    between atoms: _183  and  _184
REMARK   80  A    between atoms: _184  and  _185
REMARK   81  A    between atoms: _188  and  _190
REMARK   82  A    between atoms: _190  and  _191
REMARK   83  A    between atoms: _193  and  _195
REMARK   84  A    between atoms: _195  and  _196
REMARK   85  A    between atoms: _195  and  _198
REMARK   86  A    between atoms: _198  and  _199
REMARK   87  A    between atoms: _199  and  _200
REMARK   88  A    between atoms: _200  and  _201
REMARK   89  A    between atoms: _210  and  _212
REMARK   90  A    between atoms: _212  and  _213
REMARK   91  A    between atoms: _212  and  _215
REMARK   92  A    between atoms: _215  and  _216
REMARK   93  A    between atoms: _216  and  _217
REMARK   94  A    between atoms: _217  and  _218
REMARK   95  A    between atoms: _218  and  _219
REMARK   96  A    between atoms: _223  and  _225
REMARK   97  A    between atoms: _225  and  _226
REMARK   98  A    between atoms: _225  and  _228
REMARK   99  A    between atoms: _228  and  _229
REMARK  100  A    between atoms: _235  and  _237
REMARK  101  A    between atoms: _237  and  _238
REMARK  102  A    between atoms: _237  and  _240
REMARK  103  A    between atoms: _240  and  _241
REMARK  104  A    between atoms: _247  and  _249
REMARK  105  A    between atoms: _249  and  _250
REMARK  106  A    between atoms: _249  and  _252
REMARK  107  A    between atoms: _252  and  _253
REMARK  108  A    between atoms: _256  and  _258
REMARK  109  A    between atoms: _258  and  _259
REMARK  110  A    between atoms: _258  and  _261
REMARK  111  A    between atoms: _261  and  _262
REMARK  112  A    between atoms: _268  and  _270
REMARK  113  A    between atoms: _270  and  _271
REMARK  114  A    between atoms: _270  and  _273
REMARK  115  A    between atoms: _273  and  _274
REMARK  116  A    between atoms: _277  and  _279
REMARK  117  A    between atoms: _279  and  _280
REMARK  118  A    between atoms: _279  and  _282
REMARK  119  A    between atoms: _282  and  _283
REMARK  120  A    between atoms: _283  and  _284
REMARK  121  A    between atoms: _284  and  _285
REMARK  122  A    between atoms: _285  and  _286
REMARK  123  A    between atoms: _290  and  _292
REMARK  124  A    between atoms: _292  and  _293
REMARK  125  A    between atoms: _292  and  _295
REMARK  126  A    between atoms: _295  and  _296
REMARK  127  A    between atoms: _299  and  _301
REMARK  128  A    between atoms: _301  and  _302
REMARK  129  A    between atoms: _301  and  _304
REMARK  130  A    between atoms: _304  and  _305
REMARK  131  A    between atoms: _310  and  _312
REMARK  132  A    between atoms: _312  and  _313
REMARK  133  A    between atoms: _312  and  _315
REMARK  134  A    between atoms: _315  and  _316
REMARK  135  A    between atoms: _316  and  _317
REMARK  136  A    between atoms: _317  and  _318
REMARK  137  A    between atoms: _318  and  _319
REMARK  138  A    between atoms: _323  and  _325
REMARK  139  A    between atoms: _325  and  _326
REMARK  140  A    between atoms: _325  and  _328
REMARK  141  A    between atoms: _328  and  _329
REMARK  142  A    between atoms: _331  and  _333
REMARK  143  A    between atoms: _333  and  _334
REMARK  144  A    between atoms: _333  and  _336
REMARK  145  A    between atoms: _336  and  _337
REMARK  146  A    between atoms: _340  and  _342
REMARK  147  A    between atoms: _342  and  _343
REMARK  148  A    between atoms: _342  and  _345
REMARK  149  A    between atoms: _345  and  _346
REMARK  150  A    between atoms: _346  and  _347
REMARK  151  A    between atoms: _350  and  _352
REMARK  152  A    between atoms: _352  and  _353
REMARK  153  A    between atoms: _356  and  _357
REMARK  154  A    between atoms: _363  and  _364
REMARK  155  A    between atoms: _369  and  _371
REMARK  156  A    between atoms: _371  and  _372
REMARK  157  A    between atoms: _371  and  _374
REMARK  158  A    between atoms: _374  and  _375
REMARK  159  A    between atoms: _381  and  _383
REMARK  160  A    between atoms: _383  and  _384
REMARK  161  A    between atoms: _383  and  _386
REMARK  162  A    between atoms: _386  and  _387
REMARK  163  A    between atoms: _390  and  _392
REMARK  164  A    between atoms: _392  and  _393
REMARK  165  A    between atoms: _392  and  _395
REMARK  166  A    between atoms: _395  and  _396
REMARK  167  A    between atoms: _401  and  _403
REMARK  168  A    between atoms: _403  and  _404
REMARK  169  A    between atoms: _406  and  _408
REMARK  170  A    between atoms: _408  and  _409
REMARK  171  A    between atoms: _411  and  _413
REMARK  172  A    between atoms: _413  and  _414
REMARK  173  A    between atoms: _417  and  _419
REMARK  174  A    between atoms: _419  and  _420
REMARK  175  A    between atoms: _419  and  _422
REMARK  176  A    between atoms: _422  and  _423
REMARK  177  A    between atoms: _426  and  _428
REMARK  178  A    between atoms: _428  and  _429
REMARK  179  A    between atoms: _432  and  _434
REMARK  180  A    between atoms: _434  and  _435
REMARK  181  A    between atoms: _434  and  _437
REMARK  182  A    between atoms: _437  and  _438
REMARK  183  A    between atoms: _443  and  _445
REMARK  184  A    between atoms: _445  and  _446
REMARK  185  A    between atoms: _445  and  _448
REMARK  186  A    between atoms: _448  and  _449
REMARK  187  A    between atoms: _452  and  _454
REMARK  188  A    between atoms: _454  and  _455
REMARK  189  A    between atoms: _454  and  _457
REMARK  190  A    between atoms: _457  and  _458
REMARK  191  A    between atoms: _463  and  _465
REMARK  192  A    between atoms: _465  and  _466
REMARK  193  A    between atoms: _465  and  _468
REMARK  194  A    between atoms: _468  and  _469
REMARK  195  A    between atoms: _474  and  _475
REMARK  196  A    between atoms: _477  and  _479
REMARK  197  A    between atoms: _479  and  _480
REMARK  198  A    between atoms: _479  and  _482
REMARK  199  A    between atoms: _482  and  _483
REMARK  200  A    between atoms: _483  and  _484
REMARK  201  A    between atoms: _484  and  _485
REMARK  202  A    between atoms: _485  and  _486
REMARK  203  A    between atoms: _490  and  _492
REMARK  204  A    between atoms: _492  and  _493
REMARK  205  A    between atoms: _492  and  _495
REMARK  206  A    between atoms: _495  and  _496
REMARK  207  A    between atoms: _496  and  _497
REMARK  208  A    between atoms: _497  and  _498
REMARK  209  A    between atoms: _508  and  _509
REMARK  210  A    between atoms: _514  and  _516
REMARK  211  A    between atoms: _516  and  _517
REMARK  212  A    between atoms: _516  and  _519
REMARK  213  A    between atoms: _519  and  _520
REMARK  214  A    between atoms: _524  and  _525
REMARK  215  A    between atoms: _530  and  _532
REMARK  216  A    between atoms: _532  and  _533
REMARK  217  A    between atoms: _532  and  _535
REMARK  218  A    between atoms: _535  and  _536
REMARK  219  A    between atoms: _539  and  _541
REMARK  220  A    between atoms: _541  and  _542
REMARK  221  A    between atoms: _541  and  _544
REMARK  222  A    between atoms: _544  and  _545
REMARK  223  A    between atoms: _550  and  _551
REMARK  224  A    between atoms: _553  and  _555
REMARK  225  A    between atoms: _555  and  _556
REMARK  226  A    between atoms: _555  and  _558
REMARK  227  A    between atoms: _558  and  _559
REMARK  228  A    between atoms: _561  and  _563
REMARK  229  A    between atoms: _563  and  _564
REMARK  230  A    between atoms: _563  and  _566
REMARK  231  A    between atoms: _566  and  _567
REMARK  232  A    between atoms: _567  and  _568
REMARK                            x       y       z     vdW  Elec       q    Type
REMARK                         _______ _______ _______ _____ _____    ______ ____
ROOT
ATOM      1  O   HOH     1      30.709  55.216  31.475  0.00  0.00    +0.000 OA
ENDROOT
TORSDOF 0
REMARK  Name = ../refined-set-2016/4gah/4gah_pocket.pdb
REMARK  232 active torsions:
REMARK  status: ('A' for Active; 'I' for Inactive)
REMARK    1  A    between atoms: _1  and  _3
REMARK    2  A    between atoms: _3  and  _4
REMARK    3  A    between atoms: _3  and  _6
REMARK    4  A    between atoms: _6  and  _7
REMARK    5  A    between atoms: _7  and  _8
REMARK    6  A    between atoms: _8  and  _9
REMARK    7  A    between atoms: _18  and  _20
REMARK    8  A    between atoms: _20  and  _21
REMARK    9  A    between atoms: _20  and  _23
REMARK   10  A    between atoms: _23  and  _24
REMARK   11  A    between atoms: _27  and  _29
REMARK   12  A    between atoms: _29  and  _30
REMARK   13  A    between atoms: _29  and  _32
REMARK   14  A    between atoms: _32  and  _33
REMARK   15  A    between atoms: _39  and  _41
REMARK   16  A    between atoms: _41  and  _42
REMARK   17  A    between atoms: _41  and  _44
REMARK   18  A    between atoms: _44  and  _45
REMARK   19  A    between atoms: _48  and  _50
REMARK   20  A    between atoms: _50  and  _51
REMARK   21  A    between atoms: _50  and  _53
REMARK   22  A    between atoms: _53  and  _54
REMARK   23  A    between atoms: _57  and  _59
REMARK   24  A    between atoms: _59  and  _60
REMARK   25  A    between atoms: _59  and  _62
REMARK   26  A    between atoms: _62  and  _63
REMARK   27  A    between atoms: _66  and  _68
REMARK   28  A    between atoms: _68  and  _69
REMARK   29  A    between atoms: _72  and  _74
REMARK   30  A    between atoms: _74  and  _75
REMARK   31  A    between atoms: _74  and  _77
REMARK   32  A    between atoms: _77  and  _78
REMARK   33  A    between atoms: _81  and  _83
REMARK   34  A    between atoms: _83  and  _84
REMARK   35  A    between atoms: _83  and  _86
REMARK   36  A    between atoms: _89  and  _91
REMARK   37  A    between atoms: _91  and  _92
REMARK   38  A    between atoms: _94  and  _96
REMARK   39  A    between atoms: _96  and  _97
REMARK   40  A    between atoms: _96  and  _99
REMARK   41  A    between atoms: _99  and  _100
REMARK   42  A    between atoms: _100  and  _101
REMARK   43  A    between atoms: _103  and  _105
REMARK   44  A    between atoms: _105  and  _106
REMARK   45  A    between atoms: _105  and  _108
REMARK   46  A    between atoms: _108  and  _109
REMARK   47  A    between atoms: _109  and  _110
REMARK   48  A    between atoms: _112  and  _114
REMARK   49  A    between atoms: _114  and  _115
REMARK   50  A    between atoms: _117  and  _119
REMARK   51  A    between atoms: _119  and  _120
REMARK   52  A    between atoms: _119  and  _122
REMARK   53  A    between atoms: _122  and  _123
REMARK   54  A    between atoms: _126  and  _128
REMARK   55  A    between atoms: _128  and  _129
REMARK   56  A    between atoms: _128  and  _131
REMARK   57  A    between atoms: _134  and  _136
REMARK   58  A    between atoms: _136  and  _137
REMARK   59  A    between atoms: _136  and  _139
REMARK   60  A    between atoms: _139  and  _140
REMARK   61  A    between atoms: _140  and  _141
REMARK   62  A    between atoms: _143  and  _145
REMARK   63  A    between atoms: _145  and  _146
REMARK   64  A    between atoms: _145  and  _148
REMARK   65  A    between atoms: _148  and  _149
REMARK   66  A    between atoms: _152  and  _154
REMARK   67  A    between atoms: _154  and  _155
REMARK   68  A    between atoms: _158  and  _160
REMARK   69  A    between atoms: _160  and  _161
REMARK   70  A    between atoms: _160  and  _163
REMARK   71  A    between atoms: _163  and  _164
REMARK   72  A    between atoms: _169  and  _171
REMARK   73  A    between atoms: _171  and  _172
REMARK   74  A    between atoms: _171  and  _174
REMARK   75  A    between atoms: _174  and  _175
REMARK   76  A    between atoms: _178  and  _180
REMARK   77  A    between atoms: _180  and  _181
REMARK   78  A    between atoms: _180  and  _183
REMARK   79  A    between atoms: _183  and  _184
REMARK   80  A    between atoms: _184  and  _185
REMARK   81  A    between atoms: _188  and  _190
REMARK   82  A    between atoms: _190  and  _191
REMARK   83  A    between atoms: _193  and  _195
REMARK   84  A    between atoms: _195  and  _196
REMARK   85  A    between atoms: _195  and  _198
REMARK   86  A    between atoms: _198  and  _199
REMARK   87  A    between atoms: _199  and  _200
REMARK   88  A    between atoms: _200  and  _201
REMARK   89  A    between atoms: _210  and  _212
REMARK   90  A    between atoms: _212  and  _213
REMARK   91  A    between atoms: _212  and  _215
REMARK   92  A    between atoms: _215  and  _216
REMARK   93  A    between atoms: _216  and  _217
REMARK   94  A    between atoms: _217  and  _218
REMARK   95  A    between atoms: _218  and  _219
REMARK   96  A    between atoms: _223  and  _225
REMARK   97  A    between atoms: _225  and  _226
REMARK   98  A    between atoms: _225  and  _228
REMARK   99  A    between atoms: _228  and  _229
REMARK  100  A    between atoms: _235  and  _237
REMARK  101  A    between atoms: _237  and  _238
REMARK  102  A    between atoms: _237  and  _240
REMARK  103  A    between atoms: _240  and  _241
REMARK  104  A    between atoms: _247  and  _249
REMARK  105  A    between atoms: _249  and  _250
REMARK  106  A    between atoms: _249  and  _252
REMARK  107  A    between atoms: _252  and  _253
REMARK  108  A    between atoms: _256  and  _258
REMARK  109  A    between atoms: _258  and  _259
REMARK  110  A    between atoms: _258  and  _261
REMARK  111  A    between atoms: _261  and  _262
REMARK  112  A    between atoms: _268  and  _270
REMARK  113  A    between atoms: _270  and  _271
REMARK  114  A    between atoms: _270  and  _273
REMARK  115  A    between atoms: _273  and  _274
REMARK  116  A    between atoms: _277  and  _279
REMARK  117  A    between atoms: _279  and  _280
REMARK  118  A    between atoms: _279  and  _282
REMARK  119  A    between atoms: _282  and  _283
REMARK  120  A    between atoms: _283  and  _284
REMARK  121  A    between atoms: _284  and  _285
REMARK  122  A    between atoms: _285  and  _286
REMARK  123  A    between atoms: _290  and  _292
REMARK  124  A    between atoms: _292  and  _293
REMARK  125  A    between atoms: _292  and  _295
REMARK  126  A    between atoms: _295  and  _296
REMARK  127  A    between atoms: _299  and  _301
REMARK  128  A    between atoms: _301  and  _302
REMARK  129  A    between atoms: _301  and  _304
REMARK  130  A    between atoms: _304  and  _305
REMARK  131  A    between atoms: _310  and  _312
REMARK  132  A    between atoms: _312  and  _313
REMARK  133  A    between atoms: _312  and  _315
REMARK  134  A    between atoms: _315  and  _316
REMARK  135  A    between atoms: _316  and  _317
REMARK  136  A    between atoms: _317  and  _318
REMARK  137  A    between atoms: _318  and  _319
REMARK  138  A    between atoms: _323  and  _325
REMARK  139  A    between atoms: _325  and  _326
REMARK  140  A    between atoms: _325  and  _328
REMARK  141  A    between atoms: _328  and  _329
REMARK  142  A    between atoms: _331  and  _333
REMARK  143  A    between atoms: _333  and  _334
REMARK  144  A    between atoms: _333  and  _336
REMARK  145  A    between atoms: _336  and  _337
REMARK  146  A    between atoms: _340  and  _342
REMARK  147  A    between atoms: _342  and  _343
REMARK  148  A    between atoms: _342  and  _345
REMARK  149  A    between atoms: _345  and  _346
REMARK  150  A    between atoms: _346  and  _347
REMARK  151  A    between atoms: _350  and  _352
REMARK  152  A    between atoms: _352  and  _353
REMARK  153  A    between atoms: _356  and  _357
REMARK  154  A    between atoms: _363  and  _364
REMARK  155  A    between atoms: _369  and  _371
REMARK  156  A    between atoms: _371  and  _372
REMARK  157  A    between atoms: _371  and  _374
REMARK  158  A    between atoms: _374  and  _375
REMARK  159  A    between atoms: _381  and  _383
REMARK  160  A    between atoms: _383  and  _384
REMARK  161  A    between atoms: _383  and  _386
REMARK  162  A    between atoms: _386  and  _387
REMARK  163  A    between atoms: _390  and  _392
REMARK  164  A    between atoms: _392  and  _393
REMARK  165  A    between atoms: _392  and  _395
REMARK  166  A    between atoms: _395  and  _396
REMARK  167  A    between atoms: _401  and  _403
REMARK  168  A    between atoms: _403  and  _404
REMARK  169  A    between atoms: _406  and  _408
REMARK  170  A    between atoms: _408  and  _409
REMARK  171  A    between atoms: _411  and  _413
REMARK  172  A    between atoms: _413  and  _414
REMARK  173  A    between atoms: _417  and  _419
REMARK  174  A    between atoms: _419  and  _420
REMARK  175  A    between atoms: _419  and  _422
REMARK  176  A    between atoms: _422  and  _423
REMARK  177  A    between atoms: _426  and  _428
REMARK  178  A    between atoms: _428  and  _429
REMARK  179  A    between atoms: _432  and  _434
REMARK  180  A    between atoms: _434  and  _435
REMARK  181  A    between atoms: _434  and  _437
REMARK  182  A    between atoms: _437  and  _438
REMARK  183  A    between atoms: _443  and  _445
REMARK  184  A    between atoms: _445  and  _446
REMARK  185  A    between atoms: _445  and  _448
REMARK  186  A    between atoms: _448  and  _449
REMARK  187  A    between atoms: _452  and  _454
REMARK  188  A    between atoms: _454  and  _455
REMARK  189  A    between atoms: _454  and  _457
REMARK  190  A    between atoms: _457  and  _458
REMARK  191  A    between atoms: _463  and  _465
REMARK  192  A    between atoms: _465  and  _466
REMARK  193  A    between atoms: _465  and  _468
REMARK  194  A    between atoms: _468  and  _469
REMARK  195  A    between atoms: _474  and  _475
REMARK  196  A    between atoms: _477  and  _479
REMARK  197  A    between atoms: _479  and  _480
REMARK  198  A    between atoms: _479  and  _482
REMARK  199  A    between atoms: _482  and  _483
REMARK  200  A    between atoms: _483  and  _484
REMARK  201  A    between atoms: _484  and  _485
REMARK  202  A    between atoms: _485  and  _486
REMARK  203  A    between atoms: _490  and  _492
REMARK  204  A    between atoms: _492  and  _493
REMARK  205  A    between atoms: _492  and  _495
REMARK  206  A    between atoms: _495  and  _496
REMARK  207  A    between atoms: _496  and  _497
REMARK  208  A    between atoms: _497  and  _498
REMARK  209  A    between atoms: _508  and  _509
REMARK  210  A    between atoms: _514  and  _516
REMARK  211  A    between atoms: _516  and  _517
REMARK  212  A    between atoms: _516  and  _519
REMARK  213  A    between atoms: _519  and  _520
REMARK  214  A    between atoms: _524  and  _525
REMARK  215  A    between atoms: _530  and  _532
REMARK  216  A    between atoms: _532  and  _533
REMARK  217  A    between atoms: _532  and  _535
REMARK  218  A    between atoms: _535  and  _536
REMARK  219  A    between atoms: _539  and  _541
REMARK  220  A    between atoms: _541  and  _542
REMARK  221  A    between atoms: _541  and  _544
REMARK  222  A    between atoms: _544  and  _545
REMARK  223  A    between atoms: _550  and  _551
REMARK  224  A    between atoms: _553  and  _555
REMARK  225  A    between atoms: _555  and  _556
REMARK  226  A    between atoms: _555  and  _558
REMARK  227  A    between atoms: _558  and  _559
REMARK  228  A    between atoms: _561  and  _563
REMARK  229  A    between atoms: _563  and  _564
REMARK  230  A    between atoms: _563  and  _566
REMARK  231  A    between atoms: _566  and  _567
REMARK  232  A    between atoms: _567  and  _568
REMARK                            x       y       z     vdW  Elec       q    Type
REMARK                         _______ _______ _______ _____ _____    ______ ____
ROOT
ATOM      1  O   HOH     1      22.752  57.043  30.309  0.00  0.00    +0.000 OA
ENDROOT
TORSDOF 0
REMARK  Name = ../refined-set-2016/4gah/4gah_pocket.pdb
REMARK  232 active torsions:
REMARK  status: ('A' for Active; 'I' for Inactive)
REMARK    1  A    between atoms: _1  and  _3
REMARK    2  A    between atoms: _3  and  _4
REMARK    3  A    between atoms: _3  and  _6
REMARK    4  A    between atoms: _6  and  _7
REMARK    5  A    between atoms: _7  and  _8
REMARK    6  A    between atoms: _8  and  _9
REMARK    7  A    between atoms: _18  and  _20
REMARK    8  A    between atoms: _20  and  _21
REMARK    9  A    between atoms: _20  and  _23
REMARK   10  A    between atoms: _23  and  _24
REMARK   11  A    between atoms: _27  and  _29
REMARK   12  A    between atoms: _29  and  _30
REMARK   13  A    between atoms: _29  and  _32
REMARK   14  A    between atoms: _32  and  _33
REMARK   15  A    between atoms: _39  and  _41
REMARK   16  A    between atoms: _41  and  _42
REMARK   17  A    between atoms: _41  and  _44
REMARK   18  A    between atoms: _44  and  _45
REMARK   19  A    between atoms: _48  and  _50
REMARK   20  A    between atoms: _50  and  _51
REMARK   21  A    between atoms: _50  and  _53
REMARK   22  A    between atoms: _53  and  _54
REMARK   23  A    between atoms: _57  and  _59
REMARK   24  A    between atoms: _59  and  _60
REMARK   25  A    between atoms: _59  and  _62
REMARK   26  A    between atoms: _62  and  _63
REMARK   27  A    between atoms: _66  and  _68
REMARK   28  A    between atoms: _68  and  _69
REMARK   29  A    between atoms: _72  and  _74
REMARK   30  A    between atoms: _74  and  _75
REMARK   31  A    between atoms: _74  and  _77
REMARK   32  A    between atoms: _77  and  _78
REMARK   33  A    between atoms: _81  and  _83
REMARK   34  A    between atoms: _83  and  _84
REMARK   35  A    between atoms: _83  and  _86
REMARK   36  A    between atoms: _89  and  _91
REMARK   37  A    between atoms: _91  and  _92
REMARK   38  A    between atoms: _94  and  _96
REMARK   39  A    between atoms: _96  and  _97
REMARK   40  A    between atoms: _96  and  _99
REMARK   41  A    between atoms: _99  and  _100
REMARK   42  A    between atoms: _100  and  _101
REMARK   43  A    between atoms: _103  and  _105
REMARK   44  A    between atoms: _105  and  _106
REMARK   45  A    between atoms: _105  and  _108
REMARK   46  A    between atoms: _108  and  _109
REMARK   47  A    between atoms: _109  and  _110
REMARK   48  A    between atoms: _112  and  _114
REMARK   49  A    between atoms: _114  and  _115
REMARK   50  A    between atoms: _117  and  _119
REMARK   51  A    between atoms: _119  and  _120
REMARK   52  A    between atoms: _119  and  _122
REMARK   53  A    between atoms: _122  and  _123
REMARK   54  A    between atoms: _126  and  _128
REMARK   55  A    between atoms: _128  and  _129
REMARK   56  A    between atoms: _128  and  _131
REMARK   57  A    between atoms: _134  and  _136
REMARK   58  A    between atoms: _136  and  _137
REMARK   59  A    between atoms: _136  and  _139
REMARK   60  A    between atoms: _139  and  _140
REMARK   61  A    between atoms: _140  and  _141
REMARK   62  A    between atoms: _143  and  _145
REMARK   63  A    between atoms: _145  and  _146
REMARK   64  A    between atoms: _145  and  _148
REMARK   65  A    between atoms: _148  and  _149
REMARK   66  A    between atoms: _152  and  _154
REMARK   67  A    between atoms: _154  and  _155
REMARK   68  A    between atoms: _158  and  _160
REMARK   69  A    between atoms: _160  and  _161
REMARK   70  A    between atoms: _160  and  _163
REMARK   71  A    between atoms: _163  and  _164
REMARK   72  A    between atoms: _169  and  _171
REMARK   73  A    between atoms: _171  and  _172
REMARK   74  A    between atoms: _171  and  _174
REMARK   75  A    between atoms: _174  and  _175
REMARK   76  A    between atoms: _178  and  _180
REMARK   77  A    between atoms: _180  and  _181
REMARK   78  A    between atoms: _180  and  _183
REMARK   79  A    between atoms: _183  and  _184
REMARK   80  A    between atoms: _184  and  _185
REMARK   81  A    between atoms: _188  and  _190
REMARK   82  A    between atoms: _190  and  _191
REMARK   83  A    between atoms: _193  and  _195
REMARK   84  A    between atoms: _195  and  _196
REMARK   85  A    between atoms: _195  and  _198
REMARK   86  A    between atoms: _198  and  _199
REMARK   87  A    between atoms: _199  and  _200
REMARK   88  A    between atoms: _200  and  _201
REMARK   89  A    between atoms: _210  and  _212
REMARK   90  A    between atoms: _212  and  _213
REMARK   91  A    between atoms: _212  and  _215
REMARK   92  A    between atoms: _215  and  _216
REMARK   93  A    between atoms: _216  and  _217
REMARK   94  A    between atoms: _217  and  _218
REMARK   95  A    between atoms: _218  and  _219
REMARK   96  A    between atoms: _223  and  _225
REMARK   97  A    between atoms: _225  and  _226
REMARK   98  A    between atoms: _225  and  _228
REMARK   99  A    between atoms: _228  and  _229
REMARK  100  A    between atoms: _235  and  _237
REMARK  101  A    between atoms: _237  and  _238
REMARK  102  A    between atoms: _237  and  _240
REMARK  103  A    between atoms: _240  and  _241
REMARK  104  A    between atoms: _247  and  _249
REMARK  105  A    between atoms: _249  and  _250
REMARK  106  A    between atoms: _249  and  _252
REMARK  107  A    between atoms: _252  and  _253
REMARK  108  A    between atoms: _256  and  _258
REMARK  109  A    between atoms: _258  and  _259
REMARK  110  A    between atoms: _258  and  _261
REMARK  111  A    between atoms: _261  and  _262
REMARK  112  A    between atoms: _268  and  _270
REMARK  113  A    between atoms: _270  and  _271
REMARK  114  A    between atoms: _270  and  _273
REMARK  115  A    between atoms: _273  and  _274
REMARK  116  A    between atoms: _277  and  _279
REMARK  117  A    between atoms: _279  and  _280
REMARK  118  A    between atoms: _279  and  _282
REMARK  119  A    between atoms: _282  and  _283
REMARK  120  A    between atoms: _283  and  _284
REMARK  121  A    between atoms: _284  and  _285
REMARK  122  A    between atoms: _285  and  _286
REMARK  123  A    between atoms: _290  and  _292
REMARK  124  A    between atoms: _292  and  _293
REMARK  125  A    between atoms: _292  and  _295
REMARK  126  A    between atoms: _295  and  _296
REMARK  127  A    between atoms: _299  and  _301
REMARK  128  A    between atoms: _301  and  _302
REMARK  129  A    between atoms: _301  and  _304
REMARK  130  A    between atoms: _304  and  _305
REMARK  131  A    between atoms: _310  and  _312
REMARK  132  A    between atoms: _312  and  _313
REMARK  133  A    between atoms: _312  and  _315
REMARK  134  A    between atoms: _315  and  _316
REMARK  135  A    between atoms: _316  and  _317
REMARK  136  A    between atoms: _317  and  _318
REMARK  137  A    between atoms: _318  and  _319
REMARK  138  A    between atoms: _323  and  _325
REMARK  139  A    between atoms: _325  and  _326
REMARK  140  A    between atoms: _325  and  _328
REMARK  141  A    between atoms: _328  and  _329
REMARK  142  A    between atoms: _331  and  _333
REMARK  143  A    between atoms: _333  and  _334
REMARK  144  A    between atoms: _333  and  _336
REMARK  145  A    between atoms: _336  and  _337
REMARK  146  A    between atoms: _340  and  _342
REMARK  147  A    between atoms: _342  and  _343
REMARK  148  A    between atoms: _342  and  _345
REMARK  149  A    between atoms: _345  and  _346
REMARK  150  A    between atoms: _346  and  _347
REMARK  151  A    between atoms: _350  and  _352
REMARK  152  A    between atoms: _352  and  _353
REMARK  153  A    between atoms: _356  and  _357
REMARK  154  A    between atoms: _363  and  _364
REMARK  155  A    between atoms: _369  and  _371
REMARK  156  A    between atoms: _371  and  _372
REMARK  157  A    between atoms: _371  and  _374
REMARK  158  A    between atoms: _374  and  _375
REMARK  159  A    between atoms: _381  and  _383
REMARK  160  A    between atoms: _383  and  _384
REMARK  161  A    between atoms: _383  and  _386
REMARK  162  A    between atoms: _386  and  _387
REMARK  163  A    between atoms: _390  and  _392
REMARK  164  A    between atoms: _392  and  _393
REMARK  165  A    between atoms: _392  and  _395
REMARK  166  A    between atoms: _395  and  _396
REMARK  167  A    between atoms: _401  and  _403
REMARK  168  A    between atoms: _403  and  _404
REMARK  169  A    between atoms: _406  and  _408
REMARK  170  A    between atoms: _408  and  _409
REMARK  171  A    between atoms: _411  and  _413
REMARK  172  A    between atoms: _413  and  _414
REMARK  173  A    between atoms: _417  and  _419
REMARK  174  A    between atoms: _419  and  _420
REMARK  175  A    between atoms: _419  and  _422
REMARK  176  A    between atoms: _422  and  _423
REMARK  177  A    between atoms: _426  and  _428
REMARK  178  A    between atoms: _428  and  _429
REMARK  179  A    between atoms: _432  and  _434
REMARK  180  A    between atoms: _434  and  _435
REMARK  181  A    between atoms: _434  and  _437
REMARK  182  A    between atoms: _437  and  _438
REMARK  183  A    between atoms: _443  and  _445
REMARK  184  A    between atoms: _445  and  _446
REMARK  185  A    between atoms: _445  and  _448
REMARK  186  A    between atoms: _448  and  _449
REMARK  187  A    between atoms: _452  and  _454
REMARK  188  A    between atoms: _454  and  _455
REMARK  189  A    between atoms: _454  and  _457
REMARK  190  A    between atoms: _457  and  _458
REMARK  191  A    between atoms: _463  and  _465
REMARK  192  A    between atoms: _465  and  _466
REMARK  193  A    between atoms: _465  and  _468
REMARK  194  A    between atoms: _468  and  _469
REMARK  195  A    between atoms: _474  and  _475
REMARK  196  A    between atoms: _477  and  _479
REMARK  197  A    between atoms: _479  and  _480
REMARK  198  A    between atoms: _479  and  _482
REMARK  199  A    between atoms: _482  and  _483
REMARK  200  A    between atoms: _483  and  _484
REMARK  201  A    between atoms: _484  and  _485
REMARK  202  A    between atoms: _485  and  _486
REMARK  203  A    between atoms: _490  and  _492
REMARK  204  A    between atoms: _492  and  _493
REMARK  205  A    between atoms: _492  and  _495
REMARK  206  A    between atoms: _495  and  _496
REMARK  207  A    between atoms: _496  and  _497
REMARK  208  A    between atoms: _497  and  _498
REMARK  209  A    between atoms: _508  and  _509
REMARK  210  A    between atoms: _514  and  _516
REMARK  211  A    between atoms: _516  and  _517
REMARK  212  A    between atoms: _516  and  _519
REMARK  213  A    between atoms: _519  and  _520
REMARK  214  A    between atoms: _524  and  _525
REMARK  215  A    between atoms: _530  and  _532
REMARK  216  A    between atoms: _532  and  _533
REMARK  217  A    between atoms: _532  and  _535
REMARK  218  A    between atoms: _535  and  _536
REMARK  219  A    between atoms: _539  and  _541
REMARK  220  A    between atoms: _541  and  _542
REMARK  221  A    between atoms: _541  and  _544
REMARK  222  A    between atoms: _544  and  _545
REMARK  223  A    between atoms: _550  and  _551
REMARK  224  A    between atoms: _553  and  _555
REMARK  225  A    between atoms: _555  and  _556
REMARK  226  A    between atoms: _555  and  _558
REMARK  227  A    between atoms: _558  and  _559
REMARK  228  A    between atoms: _561  and  _563
REMARK  229  A    between atoms: _563  and  _564
REMARK  230  A    between atoms: _563  and  _566
REMARK  231  A    between atoms: _566  and  _567
REMARK  232  A    between atoms: _567  and  _568
REMARK                            x       y       z     vdW  Elec       q    Type
REMARK                         _______ _______ _______ _____ _____    ______ ____
ROOT
ATOM      1  O   HOH     1      32.696  53.732  35.906  0.00  0.00    +0.000 OA
ENDROOT
TORSDOF 0
REMARK  Name = ../refined-set-2016/4gah/4gah_pocket.pdb
REMARK  232 active torsions:
REMARK  status: ('A' for Active; 'I' for Inactive)
REMARK    1  A    between atoms: _1  and  _3
REMARK    2  A    between atoms: _3  and  _4
REMARK    3  A    between atoms: _3  and  _6
REMARK    4  A    between atoms: _6  and  _7
REMARK    5  A    between atoms: _7  and  _8
REMARK    6  A    between atoms: _8  and  _9
REMARK    7  A    between atoms: _18  and  _20
REMARK    8  A    between atoms: _20  and  _21
REMARK    9  A    between atoms: _20  and  _23
REMARK   10  A    between atoms: _23  and  _24
REMARK   11  A    between atoms: _27  and  _29
REMARK   12  A    between atoms: _29  and  _30
REMARK   13  A    between atoms: _29  and  _32
REMARK   14  A    between atoms: _32  and  _33
REMARK   15  A    between atoms: _39  and  _41
REMARK   16  A    between atoms: _41  and  _42
REMARK   17  A    between atoms: _41  and  _44
REMARK   18  A    between atoms: _44  and  _45
REMARK   19  A    between atoms: _48  and  _50
REMARK   20  A    between atoms: _50  and  _51
REMARK   21  A    between atoms: _50  and  _53
REMARK   22  A    between atoms: _53  and  _54
REMARK   23  A    between atoms: _57  and  _59
REMARK   24  A    between atoms: _59  and  _60
REMARK   25  A    between atoms: _59  and  _62
REMARK   26  A    between atoms: _62  and  _63
REMARK   27  A    between atoms: _66  and  _68
REMARK   28  A    between atoms: _68  and  _69
REMARK   29  A    between atoms: _72  and  _74
REMARK   30  A    between atoms: _74  and  _75
REMARK   31  A    between atoms: _74  and  _77
REMARK   32  A    between atoms: _77  and  _78
REMARK   33  A    between atoms: _81  and  _83
REMARK   34  A    between atoms: _83  and  _84
REMARK   35  A    between atoms: _83  and  _86
REMARK   36  A    between atoms: _89  and  _91
REMARK   37  A    between atoms: _91  and  _92
REMARK   38  A    between atoms: _94  and  _96
REMARK   39  A    between atoms: _96  and  _97
REMARK   40  A    between atoms: _96  and  _99
REMARK   41  A    between atoms: _99  and  _100
REMARK   42  A    between atoms: _100  and  _101
REMARK   43  A    between atoms: _103  and  _105
REMARK   44  A    between atoms: _105  and  _106
REMARK   45  A    between atoms: _105  and  _108
REMARK   46  A    between atoms: _108  and  _109
REMARK   47  A    between atoms: _109  and  _110
REMARK   48  A    between atoms: _112  and  _114
REMARK   49  A    between atoms: _114  and  _115
REMARK   50  A    between atoms: _117  and  _119
REMARK   51  A    between atoms: _119  and  _120
REMARK   52  A    between atoms: _119  and  _122
REMARK   53  A    between atoms: _122  and  _123
REMARK   54  A    between atoms: _126  and  _128
REMARK   55  A    between atoms: _128  and  _129
REMARK   56  A    between atoms: _128  and  _131
REMARK   57  A    between atoms: _134  and  _136
REMARK   58  A    between atoms: _136  and  _137
REMARK   59  A    between atoms: _136  and  _139
REMARK   60  A    between atoms: _139  and  _140
REMARK   61  A    between atoms: _140  and  _141
REMARK   62  A    between atoms: _143  and  _145
REMARK   63  A    between atoms: _145  and  _146
REMARK   64  A    between atoms: _145  and  _148
REMARK   65  A    between atoms: _148  and  _149
REMARK   66  A    between atoms: _152  and  _154
REMARK   67  A    between atoms: _154  and  _155
REMARK   68  A    between atoms: _158  and  _160
REMARK   69  A    between atoms: _160  and  _161
REMARK   70  A    between atoms: _160  and  _163
REMARK   71  A    between atoms: _163  and  _164
REMARK   72  A    between atoms: _169  and  _171
REMARK   73  A    between atoms: _171  and  _172
REMARK   74  A    between atoms: _171  and  _174
REMARK   75  A    between atoms: _174  and  _175
REMARK   76  A    between atoms: _178  and  _180
REMARK   77  A    between atoms: _180  and  _181
REMARK   78  A    between atoms: _180  and  _183
REMARK   79  A    between atoms: _183  and  _184
REMARK   80  A    between atoms: _184  and  _185
REMARK   81  A    between atoms: _188  and  _190
REMARK   82  A    between atoms: _190  and  _191
REMARK   83  A    between atoms: _193  and  _195
REMARK   84  A    between atoms: _195  and  _196
REMARK   85  A    between atoms: _195  and  _198
REMARK   86  A    between atoms: _198  and  _199
REMARK   87  A    between atoms: _199  and  _200
REMARK   88  A    between atoms: _200  and  _201
REMARK   89  A    between atoms: _210  and  _212
REMARK   90  A    between atoms: _212  and  _213
REMARK   91  A    between atoms: _212  and  _215
REMARK   92  A    between atoms: _215  and  _216
REMARK   93  A    between atoms: _216  and  _217
REMARK   94  A    between atoms: _217  and  _218
REMARK   95  A    between atoms: _218  and  _219
REMARK   96  A    between atoms: _223  and  _225
REMARK   97  A    between atoms: _225  and  _226
REMARK   98  A    between atoms: _225  and  _228
REMARK   99  A    between atoms: _228  and  _229
REMARK  100  A    between atoms: _235  and  _237
REMARK  101  A    between atoms: _237  and  _238
REMARK  102  A    between atoms: _237  and  _240
REMARK  103  A    between atoms: _240  and  _241
REMARK  104  A    between atoms: _247  and  _249
REMARK  105  A    between atoms: _249  and  _250
REMARK  106  A    between atoms: _249  and  _252
REMARK  107  A    between atoms: _252  and  _253
REMARK  108  A    between atoms: _256  and  _258
REMARK  109  A    between atoms: _258  and  _259
REMARK  110  A    between atoms: _258  and  _261
REMARK  111  A    between atoms: _261  and  _262
REMARK  112  A    between atoms: _268  and  _270
REMARK  113  A    between atoms: _270  and  _271
REMARK  114  A    between atoms: _270  and  _273
REMARK  115  A    between atoms: _273  and  _274
REMARK  116  A    between atoms: _277  and  _279
REMARK  117  A    between atoms: _279  and  _280
REMARK  118  A    between atoms: _279  and  _282
REMARK  119  A    between atoms: _282  and  _283
REMARK  120  A    between atoms: _283  and  _284
REMARK  121  A    between atoms: _284  and  _285
REMARK  122  A    between atoms: _285  and  _286
REMARK  123  A    between atoms: _290  and  _292
REMARK  124  A    between atoms: _292  and  _293
REMARK  125  A    between atoms: _292  and  _295
REMARK  126  A    between atoms: _295  and  _296
REMARK  127  A    between atoms: _299  and  _301
REMARK  128  A    between atoms: _301  and  _302
REMARK  129  A    between atoms: _301  and  _304
REMARK  130  A    between atoms: _304  and  _305
REMARK  131  A    between atoms: _310  and  _312
REMARK  132  A    between atoms: _312  and  _313
REMARK  133  A    between atoms: _312  and  _315
REMARK  134  A    between atoms: _315  and  _316
REMARK  135  A    between atoms: _316  and  _317
REMARK  136  A    between atoms: _317  and  _318
REMARK  137  A    between atoms: _318  and  _319
REMARK  138  A    between atoms: _323  and  _325
REMARK  139  A    between atoms: _325  and  _326
REMARK  140  A    between atoms: _325  and  _328
REMARK  141  A    between atoms: _328  and  _329
REMARK  142  A    between atoms: _331  and  _333
REMARK  143  A    between atoms: _333  and  _334
REMARK  144  A    between atoms: _333  and  _336
REMARK  145  A    between atoms: _336  and  _337
REMARK  146  A    between atoms: _340  and  _342
REMARK  147  A    between atoms: _342  and  _343
REMARK  148  A    between atoms: _342  and  _345
REMARK  149  A    between atoms: _345  and  _346
REMARK  150  A    between atoms: _346  and  _347
REMARK  151  A    between atoms: _350  and  _352
REMARK  152  A    between atoms: _352  and  _353
REMARK  153  A    between atoms: _356  and  _357
REMARK  154  A    between atoms: _363  and  _364
REMARK  155  A    between atoms: _369  and  _371
REMARK  156  A    between atoms: _371  and  _372
REMARK  157  A    between atoms: _371  and  _374
REMARK  158  A    between atoms: _374  and  _375
REMARK  159  A    between atoms: _381  and  _383
REMARK  160  A    between atoms: _383  and  _384
REMARK  161  A    between atoms: _383  and  _386
REMARK  162  A    between atoms: _386  and  _387
REMARK  163  A    between atoms: _390  and  _392
REMARK  164  A    between atoms: _392  and  _393
REMARK  165  A    between atoms: _392  and  _395
REMARK  166  A    between atoms: _395  and  _396
REMARK  167  A    between atoms: _401  and  _403
REMARK  168  A    between atoms: _403  and  _404
REMARK  169  A    between atoms: _406  and  _408
REMARK  170  A    between atoms: _408  and  _409
REMARK  171  A    between atoms: _411  and  _413
REMARK  172  A    between atoms: _413  and  _414
REMARK  173  A    between atoms: _417  and  _419
REMARK  174  A    between atoms: _419  and  _420
REMARK  175  A    between atoms: _419  and  _422
REMARK  176  A    between atoms: _422  and  _423
REMARK  177  A    between atoms: _426  and  _428
REMARK  178  A    between atoms: _428  and  _429
REMARK  179  A    between atoms: _432  and  _434
REMARK  180  A    between atoms: _434  and  _435
REMARK  181  A    between atoms: _434  and  _437
REMARK  182  A    between atoms: _437  and  _438
REMARK  183  A    between atoms: _443  and  _445
REMARK  184  A    between atoms: _445  and  _446
REMARK  185  A    between atoms: _445  and  _448
REMARK  186  A    between atoms: _448  and  _449
REMARK  187  A    between atoms: _452  and  _454
REMARK  188  A    between atoms: _454  and  _455
REMARK  189  A    between atoms: _454  and  _457
REMARK  190  A    between atoms: _457  and  _458
REMARK  191  A    between atoms: _463  and  _465
REMARK  192  A    between atoms: _465  and  _466
REMARK  193  A    between atoms: _465  and  _468
REMARK  194  A    between atoms: _468  and  _469
REMARK  195  A    between atoms: _474  and  _475
REMARK  196  A    between atoms: _477  and  _479
REMARK  197  A    between atoms: _479  and  _480
REMARK  198  A    between atoms: _479  and  _482
REMARK  199  A    between atoms: _482  and  _483
REMARK  200  A    between atoms: _483  and  _484
REMARK  201  A    between atoms: _484  and  _485
REMARK  202  A    between atoms: _485  and  _486
REMARK  203  A    between atoms: _490  and  _492
REMARK  204  A    between atoms: _492  and  _493
REMARK  205  A    between atoms: _492  and  _495
REMARK  206  A    between atoms: _495  and  _496
REMARK  207  A    between atoms: _496  and  _497
REMARK  208  A    between atoms: _497  and  _498
REMARK  209  A    between atoms: _508  and  _509
REMARK  210  A    between atoms: _514  and  _516
REMARK  211  A    between atoms: _516  and  _517
REMARK  212  A    between atoms: _516  and  _519
REMARK  213  A    between atoms: _519  and  _520
REMARK  214  A    between atoms: _524  and  _525
REMARK  215  A    between atoms: _530  and  _532
REMARK  216  A    between atoms: _532  and  _533
REMARK  217  A    between atoms: _532  and  _535
REMARK  218  A    between atoms: _535  and  _536
REMARK  219  A    between atoms: _539  and  _541
REMARK  220  A    between atoms: _541  and  _542
REMARK  221  A    between atoms: _541  and  _544
REMARK  222  A    between atoms: _544  and  _545
REMARK  223  A    between atoms: _550  and  _551
REMARK  224  A    between atoms: _553  and  _555
REMARK  225  A    between atoms: _555  and  _556
REMARK  226  A    between atoms: _555  and  _558
REMARK  227  A    between atoms: _558  and  _559
REMARK  228  A    between atoms: _561  and  _563
REMARK  229  A    between atoms: _563  and  _564
REMARK  230  A    between atoms: _563  and  _566
REMARK  231  A    between atoms: _566  and  _567
REMARK  232  A    between atoms: _567  and  _568
REMARK                            x       y       z     vdW  Elec       q    Type
REMARK                         _______ _______ _______ _____ _____    ______ ____
ROOT
ATOM      1  O   HOH     1      22.227  57.230  39.482  0.00  0.00    +0.000 OA
ENDROOT
TORSDOF 0
REMARK  Name = ../refined-set-2016/4gah/4gah_pocket.pdb
REMARK  232 active torsions:
REMARK  status: ('A' for Active; 'I' for Inactive)
REMARK    1  A    between atoms: _1  and  _3
REMARK    2  A    between atoms: _3  and  _4
REMARK    3  A    between atoms: _3  and  _6
REMARK    4  A    between atoms: _6  and  _7
REMARK    5  A    between atoms: _7  and  _8
REMARK    6  A    between atoms: _8  and  _9
REMARK    7  A    between atoms: _18  and  _20
REMARK    8  A    between atoms: _20  and  _21
REMARK    9  A    between atoms: _20  and  _23
REMARK   10  A    between atoms: _23  and  _24
REMARK   11  A    between atoms: _27  and  _29
REMARK   12  A    between atoms: _29  and  _30
REMARK   13  A    between atoms: _29  and  _32
REMARK   14  A    between atoms: _32  and  _33
REMARK   15  A    between atoms: _39  and  _41
REMARK   16  A    between atoms: _41  and  _42
REMARK   17  A    between atoms: _41  and  _44
REMARK   18  A    between atoms: _44  and  _45
REMARK   19  A    between atoms: _48  and  _50
REMARK   20  A    between atoms: _50  and  _51
REMARK   21  A    between atoms: _50  and  _53
REMARK   22  A    between atoms: _53  and  _54
REMARK   23  A    between atoms: _57  and  _59
REMARK   24  A    between atoms: _59  and  _60
REMARK   25  A    between atoms: _59  and  _62
REMARK   26  A    between atoms: _62  and  _63
REMARK   27  A    between atoms: _66  and  _68
REMARK   28  A    between atoms: _68  and  _69
REMARK   29  A    between atoms: _72  and  _74
REMARK   30  A    between atoms: _74  and  _75
REMARK   31  A    between atoms: _74  and  _77
REMARK   32  A    between atoms: _77  and  _78
REMARK   33  A    between atoms: _81  and  _83
REMARK   34  A    between atoms: _83  and  _84
REMARK   35  A    between atoms: _83  and  _86
REMARK   36  A    between atoms: _89  and  _91
REMARK   37  A    between atoms: _91  and  _92
REMARK   38  A    between atoms: _94  and  _96
REMARK   39  A    between atoms: _96  and  _97
REMARK   40  A    between atoms: _96  and  _99
REMARK   41  A    between atoms: _99  and  _100
REMARK   42  A    between atoms: _100  and  _101
REMARK   43  A    between atoms: _103  and  _105
REMARK   44  A    between atoms: _105  and  _106
REMARK   45  A    between atoms: _105  and  _108
REMARK   46  A    between atoms: _108  and  _109
REMARK   47  A    between atoms: _109  and  _110
REMARK   48  A    between atoms: _112  and  _114
REMARK   49  A    between atoms: _114  and  _115
REMARK   50  A    between atoms: _117  and  _119
REMARK   51  A    between atoms: _119  and  _120
REMARK   52  A    between atoms: _119  and  _122
REMARK   53  A    between atoms: _122  and  _123
REMARK   54  A    between atoms: _126  and  _128
REMARK   55  A    between atoms: _128  and  _129
REMARK   56  A    between atoms: _128  and  _131
REMARK   57  A    between atoms: _134  and  _136
REMARK   58  A    between atoms: _136  and  _137
REMARK   59  A    between atoms: _136  and  _139
REMARK   60  A    between atoms: _139  and  _140
REMARK   61  A    between atoms: _140  and  _141
REMARK   62  A    between atoms: _143  and  _145
REMARK   63  A    between atoms: _145  and  _146
REMARK   64  A    between atoms: _145  and  _148
REMARK   65  A    between atoms: _148  and  _149
REMARK   66  A    between atoms: _152  and  _154
REMARK   67  A    between atoms: _154  and  _155
REMARK   68  A    between atoms: _158  and  _160
REMARK   69  A    between atoms: _160  and  _161
REMARK   70  A    between atoms: _160  and  _163
REMARK   71  A    between atoms: _163  and  _164
REMARK   72  A    between atoms: _169  and  _171
REMARK   73  A    between atoms: _171  and  _172
REMARK   74  A    between atoms: _171  and  _174
REMARK   75  A    between atoms: _174  and  _175
REMARK   76  A    between atoms: _178  and  _180
REMARK   77  A    between atoms: _180  and  _181
REMARK   78  A    between atoms: _180  and  _183
REMARK   79  A    between atoms: _183  and  _184
REMARK   80  A    between atoms: _184  and  _185
REMARK   81  A    between atoms: _188  and  _190
REMARK   82  A    between atoms: _190  and  _191
REMARK   83  A    between atoms: _193  and  _195
REMARK   84  A    between atoms: _195  and  _196
REMARK   85  A    between atoms: _195  and  _198
REMARK   86  A    between atoms: _198  and  _199
REMARK   87  A    between atoms: _199  and  _200
REMARK   88  A    between atoms: _200  and  _201
REMARK   89  A    between atoms: _210  and  _212
REMARK   90  A    between atoms: _212  and  _213
REMARK   91  A    between atoms: _212  and  _215
REMARK   92  A    between atoms: _215  and  _216
REMARK   93  A    between atoms: _216  and  _217
REMARK   94  A    between atoms: _217  and  _218
REMARK   95  A    between atoms: _218  and  _219
REMARK   96  A    between atoms: _223  and  _225
REMARK   97  A    between atoms: _225  and  _226
REMARK   98  A    between atoms: _225  and  _228
REMARK   99  A    between atoms: _228  and  _229
REMARK  100  A    between atoms: _235  and  _237
REMARK  101  A    between atoms: _237  and  _238
REMARK  102  A    between atoms: _237  and  _240
REMARK  103  A    between atoms: _240  and  _241
REMARK  104  A    between atoms: _247  and  _249
REMARK  105  A    between atoms: _249  and  _250
REMARK  106  A    between atoms: _249  and  _252
REMARK  107  A    between atoms: _252  and  _253
REMARK  108  A    between atoms: _256  and  _258
REMARK  109  A    between atoms: _258  and  _259
REMARK  110  A    between atoms: _258  and  _261
REMARK  111  A    between atoms: _261  and  _262
REMARK  112  A    between atoms: _268  and  _270
REMARK  113  A    between atoms: _270  and  _271
REMARK  114  A    between atoms: _270  and  _273
REMARK  115  A    between atoms: _273  and  _274
REMARK  116  A    between atoms: _277  and  _279
REMARK  117  A    between atoms: _279  and  _280
REMARK  118  A    between atoms: _279  and  _282
REMARK  119  A    between atoms: _282  and  _283
REMARK  120  A    between atoms: _283  and  _284
REMARK  121  A    between atoms: _284  and  _285
REMARK  122  A    between atoms: _285  and  _286
REMARK  123  A    between atoms: _290  and  _292
REMARK  124  A    between atoms: _292  and  _293
REMARK  125  A    between atoms: _292  and  _295
REMARK  126  A    between atoms: _295  and  _296
REMARK  127  A    between atoms: _299  and  _301
REMARK  128  A    between atoms: _301  and  _302
REMARK  129  A    between atoms: _301  and  _304
REMARK  130  A    between atoms: _304  and  _305
REMARK  131  A    between atoms: _310  and  _312
REMARK  132  A    between atoms: _312  and  _313
REMARK  133  A    between atoms: _312  and  _315
REMARK  134  A    between atoms: _315  and  _316
REMARK  135  A    between atoms: _316  and  _317
REMARK  136  A    between atoms: _317  and  _318
REMARK  137  A    between atoms: _318  and  _319
REMARK  138  A    between atoms: _323  and  _325
REMARK  139  A    between atoms: _325  and  _326
REMARK  140  A    between atoms: _325  and  _328
REMARK  141  A    between atoms: _328  and  _329
REMARK  142  A    between atoms: _331  and  _333
REMARK  143  A    between atoms: _333  and  _334
REMARK  144  A    between atoms: _333  and  _336
REMARK  145  A    between atoms: _336  and  _337
REMARK  146  A    between atoms: _340  and  _342
REMARK  147  A    between atoms: _342  and  _343
REMARK  148  A    between atoms: _342  and  _345
REMARK  149  A    between atoms: _345  and  _346
REMARK  150  A    between atoms: _346  and  _347
REMARK  151  A    between atoms: _350  and  _352
REMARK  152  A    between atoms: _352  and  _353
REMARK  153  A    between atoms: _356  and  _357
REMARK  154  A    between atoms: _363  and  _364
REMARK  155  A    between atoms: _369  and  _371
REMARK  156  A    between atoms: _371  and  _372
REMARK  157  A    between atoms: _371  and  _374
REMARK  158  A    between atoms: _374  and  _375
REMARK  159  A    between atoms: _381  and  _383
REMARK  160  A    between atoms: _383  and  _384
REMARK  161  A    between atoms: _383  and  _386
REMARK  162  A    between atoms: _386  and  _387
REMARK  163  A    between atoms: _390  and  _392
REMARK  164  A    between atoms: _392  and  _393
REMARK  165  A    between atoms: _392  and  _395
REMARK  166  A    between atoms: _395  and  _396
REMARK  167  A    between atoms: _401  and  _403
REMARK  168  A    between atoms: _403  and  _404
REMARK  169  A    between atoms: _406  and  _408
REMARK  170  A    between atoms: _408  and  _409
REMARK  171  A    between atoms: _411  and  _413
REMARK  172  A    between atoms: _413  and  _414
REMARK  173  A    between atoms: _417  and  _419
REMARK  174  A    between atoms: _419  and  _420
REMARK  175  A    between atoms: _419  and  _422
REMARK  176  A    between atoms: _422  and  _423
REMARK  177  A    between atoms: _426  and  _428
REMARK  178  A    between atoms: _428  and  _429
REMARK  179  A    between atoms: _432  and  _434
REMARK  180  A    between atoms: _434  and  _435
REMARK  181  A    between atoms: _434  and  _437
REMARK  182  A    between atoms: _437  and  _438
REMARK  183  A    between atoms: _443  and  _445
REMARK  184  A    between atoms: _445  and  _446
REMARK  185  A    between atoms: _445  and  _448
REMARK  186  A    between atoms: _448  and  _449
REMARK  187  A    between atoms: _452  and  _454
REMARK  188  A    between atoms: _454  and  _455
REMARK  189  A    between atoms: _454  and  _457
REMARK  190  A    between atoms: _457  and  _458
REMARK  191  A    between atoms: _463  and  _465
REMARK  192  A    between atoms: _465  and  _466
REMARK  193  A    between atoms: _465  and  _468
REMARK  194  A    between atoms: _468  and  _469
REMARK  195  A    between atoms: _474  and  _475
REMARK  196  A    between atoms: _477  and  _479
REMARK  197  A    between atoms: _479  and  _480
REMARK  198  A    between atoms: _479  and  _482
REMARK  199  A    between atoms: _482  and  _483
REMARK  200  A    between atoms: _483  and  _484
REMARK  201  A    between atoms: _484  and  _485
REMARK  202  A    between atoms: _485  and  _486
REMARK  203  A    between atoms: _490  and  _492
REMARK  204  A    between atoms: _492  and  _493
REMARK  205  A    between atoms: _492  and  _495
REMARK  206  A    between atoms: _495  and  _496
REMARK  207  A    between atoms: _496  and  _497
REMARK  208  A    between atoms: _497  and  _498
REMARK  209  A    between atoms: _508  and  _509
REMARK  210  A    between atoms: _514  and  _516
REMARK  211  A    between atoms: _516  and  _517
REMARK  212  A    between atoms: _516  and  _519
REMARK  213  A    between atoms: _519  and  _520
REMARK  214  A    between atoms: _524  and  _525
REMARK  215  A    between atoms: _530  and  _532
REMARK  216  A    between atoms: _532  and  _533
REMARK  217  A    between atoms: _532  and  _535
REMARK  218  A    between atoms: _535  and  _536
REMARK  219  A    between atoms: _539  and  _541
REMARK  220  A    between atoms: _541  and  _542
REMARK  221  A    between atoms: _541  and  _544
REMARK  222  A    between atoms: _544  and  _545
REMARK  223  A    between atoms: _550  and  _551
REMARK  224  A    between atoms: _553  and  _555
REMARK  225  A    between atoms: _555  and  _556
REMARK  226  A    between atoms: _555  and  _558
REMARK  227  A    between atoms: _558  and  _559
REMARK  228  A    between atoms: _561  and  _563
REMARK  229  A    between atoms: _563  and  _564
REMARK  230  A    between atoms: _563  and  _566
REMARK  231  A    between atoms: _566  and  _567
REMARK  232  A    between atoms: _567  and  _568
REMARK                            x       y       z     vdW  Elec       q    Type
REMARK                         _______ _______ _______ _____ _____    ______ ____
ROOT
ATOM      1  O   HOH     1      19.011  60.845  39.761  0.00  0.00    +0.000 OA
ENDROOT
TORSDOF 0
REMARK  Name = ../refined-set-2016/4gah/4gah_pocket.pdb
REMARK  232 active torsions:
REMARK  status: ('A' for Active; 'I' for Inactive)
REMARK    1  A    between atoms: _1  and  _3
REMARK    2  A    between atoms: _3  and  _4
REMARK    3  A    between atoms: _3  and  _6
REMARK    4  A    between atoms: _6  and  _7
REMARK    5  A    between atoms: _7  and  _8
REMARK    6  A    between atoms: _8  and  _9
REMARK    7  A    between atoms: _18  and  _20
REMARK    8  A    between atoms: _20  and  _21
REMARK    9  A    between atoms: _20  and  _23
REMARK   10  A    between atoms: _23  and  _24
REMARK   11  A    between atoms: _27  and  _29
REMARK   12  A    between atoms: _29  and  _30
REMARK   13  A    between atoms: _29  and  _32
REMARK   14  A    between atoms: _32  and  _33
REMARK   15  A    between atoms: _39  and  _41
REMARK   16  A    between atoms: _41  and  _42
REMARK   17  A    between atoms: _41  and  _44
REMARK   18  A    between atoms: _44  and  _45
REMARK   19  A    between atoms: _48  and  _50
REMARK   20  A    between atoms: _50  and  _51
REMARK   21  A    between atoms: _50  and  _53
REMARK   22  A    between atoms: _53  and  _54
REMARK   23  A    between atoms: _57  and  _59
REMARK   24  A    between atoms: _59  and  _60
REMARK   25  A    between atoms: _59  and  _62
REMARK   26  A    between atoms: _62  and  _63
REMARK   27  A    between atoms: _66  and  _68
REMARK   28  A    between atoms: _68  and  _69
REMARK   29  A    between atoms: _72  and  _74
REMARK   30  A    between atoms: _74  and  _75
REMARK   31  A    between atoms: _74  and  _77
REMARK   32  A    between atoms: _77  and  _78
REMARK   33  A    between atoms: _81  and  _83
REMARK   34  A    between atoms: _83  and  _84
REMARK   35  A    between atoms: _83  and  _86
REMARK   36  A    between atoms: _89  and  _91
REMARK   37  A    between atoms: _91  and  _92
REMARK   38  A    between atoms: _94  and  _96
REMARK   39  A    between atoms: _96  and  _97
REMARK   40  A    between atoms: _96  and  _99
REMARK   41  A    between atoms: _99  and  _100
REMARK   42  A    between atoms: _100  and  _101
REMARK   43  A    between atoms: _103  and  _105
REMARK   44  A    between atoms: _105  and  _106
REMARK   45  A    between atoms: _105  and  _108
REMARK   46  A    between atoms: _108  and  _109
REMARK   47  A    between atoms: _109  and  _110
REMARK   48  A    between atoms: _112  and  _114
REMARK   49  A    between atoms: _114  and  _115
REMARK   50  A    between atoms: _117  and  _119
REMARK   51  A    between atoms: _119  and  _120
REMARK   52  A    between atoms: _119  and  _122
REMARK   53  A    between atoms: _122  and  _123
REMARK   54  A    between atoms: _126  and  _128
REMARK   55  A    between atoms: _128  and  _129
REMARK   56  A    between atoms: _128  and  _131
REMARK   57  A    between atoms: _134  and  _136
REMARK   58  A    between atoms: _136  and  _137
REMARK   59  A    between atoms: _136  and  _139
REMARK   60  A    between atoms: _139  and  _140
REMARK   61  A    between atoms: _140  and  _141
REMARK   62  A    between atoms: _143  and  _145
REMARK   63  A    between atoms: _145  and  _146
REMARK   64  A    between atoms: _145  and  _148
REMARK   65  A    between atoms: _148  and  _149
REMARK   66  A    between atoms: _152  and  _154
REMARK   67  A    between atoms: _154  and  _155
REMARK   68  A    between atoms: _158  and  _160
REMARK   69  A    between atoms: _160  and  _161
REMARK   70  A    between atoms: _160  and  _163
REMARK   71  A    between atoms: _163  and  _164
REMARK   72  A    between atoms: _169  and  _171
REMARK   73  A    between atoms: _171  and  _172
REMARK   74  A    between atoms: _171  and  _174
REMARK   75  A    between atoms: _174  and  _175
REMARK   76  A    between atoms: _178  and  _180
REMARK   77  A    between atoms: _180  and  _181
REMARK   78  A    between atoms: _180  and  _183
REMARK   79  A    between atoms: _183  and  _184
REMARK   80  A    between atoms: _184  and  _185
REMARK   81  A    between atoms: _188  and  _190
REMARK   82  A    between atoms: _190  and  _191
REMARK   83  A    between atoms: _193  and  _195
REMARK   84  A    between atoms: _195  and  _196
REMARK   85  A    between atoms: _195  and  _198
REMARK   86  A    between atoms: _198  and  _199
REMARK   87  A    between atoms: _199  and  _200
REMARK   88  A    between atoms: _200  and  _201
REMARK   89  A    between atoms: _210  and  _212
REMARK   90  A    between atoms: _212  and  _213
REMARK   91  A    between atoms: _212  and  _215
REMARK   92  A    between atoms: _215  and  _216
REMARK   93  A    between atoms: _216  and  _217
REMARK   94  A    between atoms: _217  and  _218
REMARK   95  A    between atoms: _218  and  _219
REMARK   96  A    between atoms: _223  and  _225
REMARK   97  A    between atoms: _225  and  _226
REMARK   98  A    between atoms: _225  and  _228
REMARK   99  A    between atoms: _228  and  _229
REMARK  100  A    between atoms: _235  and  _237
REMARK  101  A    between atoms: _237  and  _238
REMARK  102  A    between atoms: _237  and  _240
REMARK  103  A    between atoms: _240  and  _241
REMARK  104  A    between atoms: _247  and  _249
REMARK  105  A    between atoms: _249  and  _250
REMARK  106  A    between atoms: _249  and  _252
REMARK  107  A    between atoms: _252  and  _253
REMARK  108  A    between atoms: _256  and  _258
REMARK  109  A    between atoms: _258  and  _259
REMARK  110  A    between atoms: _258  and  _261
REMARK  111  A    between atoms: _261  and  _262
REMARK  112  A    between atoms: _268  and  _270
REMARK  113  A    between atoms: _270  and  _271
REMARK  114  A    between atoms: _270  and  _273
REMARK  115  A    between atoms: _273  and  _274
REMARK  116  A    between atoms: _277  and  _279
REMARK  117  A    between atoms: _279  and  _280
REMARK  118  A    between atoms: _279  and  _282
REMARK  119  A    between atoms: _282  and  _283
REMARK  120  A    between atoms: _283  and  _284
REMARK  121  A    between atoms: _284  and  _285
REMARK  122  A    between atoms: _285  and  _286
REMARK  123  A    between atoms: _290  and  _292
REMARK  124  A    between atoms: _292  and  _293
REMARK  125  A    between atoms: _292  and  _295
REMARK  126  A    between atoms: _295  and  _296
REMARK  127  A    between atoms: _299  and  _301
REMARK  128  A    between atoms: _301  and  _302
REMARK  129  A    between atoms: _301  and  _304
REMARK  130  A    between atoms: _304  and  _305
REMARK  131  A    between atoms: _310  and  _312
REMARK  132  A    between atoms: _312  and  _313
REMARK  133  A    between atoms: _312  and  _315
REMARK  134  A    between atoms: _315  and  _316
REMARK  135  A    between atoms: _316  and  _317
REMARK  136  A    between atoms: _317  and  _318
REMARK  137  A    between atoms: _318  and  _319
REMARK  138  A    between atoms: _323  and  _325
REMARK  139  A    between atoms: _325  and  _326
REMARK  140  A    between atoms: _325  and  _328
REMARK  141  A    between atoms: _328  and  _329
REMARK  142  A    between atoms: _331  and  _333
REMARK  143  A    between atoms: _333  and  _334
REMARK  144  A    between atoms: _333  and  _336
REMARK  145  A    between atoms: _336  and  _337
REMARK  146  A    between atoms: _340  and  _342
REMARK  147  A    between atoms: _342  and  _343
REMARK  148  A    between atoms: _342  and  _345
REMARK  149  A    between atoms: _345  and  _346
REMARK  150  A    between atoms: _346  and  _347
REMARK  151  A    between atoms: _350  and  _352
REMARK  152  A    between atoms: _352  and  _353
REMARK  153  A    between atoms: _356  and  _357
REMARK  154  A    between atoms: _363  and  _364
REMARK  155  A    between atoms: _369  and  _371
REMARK  156  A    between atoms: _371  and  _372
REMARK  157  A    between atoms: _371  and  _374
REMARK  158  A    between atoms: _374  and  _375
REMARK  159  A    between atoms: _381  and  _383
REMARK  160  A    between atoms: _383  and  _384
REMARK  161  A    between atoms: _383  and  _386
REMARK  162  A    between atoms: _386  and  _387
REMARK  163  A    between atoms: _390  and  _392
REMARK  164  A    between atoms: _392  and  _393
REMARK  165  A    between atoms: _392  and  _395
REMARK  166  A    between atoms: _395  and  _396
REMARK  167  A    between atoms: _401  and  _403
REMARK  168  A    between atoms: _403  and  _404
REMARK  169  A    between atoms: _406  and  _408
REMARK  170  A    between atoms: _408  and  _409
REMARK  171  A    between atoms: _411  and  _413
REMARK  172  A    between atoms: _413  and  _414
REMARK  173  A    between atoms: _417  and  _419
REMARK  174  A    between atoms: _419  and  _420
REMARK  175  A    between atoms: _419  and  _422
REMARK  176  A    between atoms: _422  and  _423
REMARK  177  A    between atoms: _426  and  _428
REMARK  178  A    between atoms: _428  and  _429
REMARK  179  A    between atoms: _432  and  _434
REMARK  180  A    between atoms: _434  and  _435
REMARK  181  A    between atoms: _434  and  _437
REMARK  182  A    between atoms: _437  and  _438
REMARK  183  A    between atoms: _443  and  _445
REMARK  184  A    between atoms: _445  and  _446
REMARK  185  A    between atoms: _445  and  _448
REMARK  186  A    between atoms: _448  and  _449
REMARK  187  A    between atoms: _452  and  _454
REMARK  188  A    between atoms: _454  and  _455
REMARK  189  A    between atoms: _454  and  _457
REMARK  190  A    between atoms: _457  and  _458
REMARK  191  A    between atoms: _463  and  _465
REMARK  192  A    between atoms: _465  and  _466
REMARK  193  A    between atoms: _465  and  _468
REMARK  194  A    between atoms: _468  and  _469
REMARK  195  A    between atoms: _474  and  _475
REMARK  196  A    between atoms: _477  and  _479
REMARK  197  A    between atoms: _479  and  _480
REMARK  198  A    between atoms: _479  and  _482
REMARK  199  A    between atoms: _482  and  _483
REMARK  200  A    between atoms: _483  and  _484
REMARK  201  A    between atoms: _484  and  _485
REMARK  202  A    between atoms: _485  and  _486
REMARK  203  A    between atoms: _490  and  _492
REMARK  204  A    between atoms: _492  and  _493
REMARK  205  A    between atoms: _492  and  _495
REMARK  206  A    between atoms: _495  and  _496
REMARK  207  A    between atoms: _496  and  _497
REMARK  208  A    between atoms: _497  and  _498
REMARK  209  A    between atoms: _508  and  _509
REMARK  210  A    between atoms: _514  and  _516
REMARK  211  A    between atoms: _516  and  _517
REMARK  212  A    between atoms: _516  and  _519
REMARK  213  A    between atoms: _519  and  _520
REMARK  214  A    between atoms: _524  and  _525
REMARK  215  A    between atoms: _530  and  _532
REMARK  216  A    between atoms: _532  and  _533
REMARK  217  A    between atoms: _532  and  _535
REMARK  218  A    between atoms: _535  and  _536
REMARK  219  A    between atoms: _539  and  _541
REMARK  220  A    between atoms: _541  and  _542
REMARK  221  A    between atoms: _541  and  _544
REMARK  222  A    between atoms: _544  and  _545
REMARK  223  A    between atoms: _550  and  _551
REMARK  224  A    between atoms: _553  and  _555
REMARK  225  A    between atoms: _555  and  _556
REMARK  226  A    between atoms: _555  and  _558
REMARK  227  A    between atoms: _558  and  _559
REMARK  228  A    between atoms: _561  and  _563
REMARK  229  A    between atoms: _563  and  _564
REMARK  230  A    between atoms: _563  and  _566
REMARK  231  A    between atoms: _566  and  _567
REMARK  232  A    between atoms: _567  and  _568
REMARK                            x       y       z     vdW  Elec       q    Type
REMARK                         _______ _______ _______ _____ _____    ______ ____
ROOT
ATOM      1  O   HOH     1      21.002  70.260  46.549  0.00  0.00    +0.000 OA
ENDROOT
TORSDOF 0
REMARK  Name = ../refined-set-2016/4gah/4gah_pocket.pdb
REMARK  232 active torsions:
REMARK  status: ('A' for Active; 'I' for Inactive)
REMARK    1  A    between atoms: _1  and  _3
REMARK    2  A    between atoms: _3  and  _4
REMARK    3  A    between atoms: _3  and  _6
REMARK    4  A    between atoms: _6  and  _7
REMARK    5  A    between atoms: _7  and  _8
REMARK    6  A    between atoms: _8  and  _9
REMARK    7  A    between atoms: _18  and  _20
REMARK    8  A    between atoms: _20  and  _21
REMARK    9  A    between atoms: _20  and  _23
REMARK   10  A    between atoms: _23  and  _24
REMARK   11  A    between atoms: _27  and  _29
REMARK   12  A    between atoms: _29  and  _30
REMARK   13  A    between atoms: _29  and  _32
REMARK   14  A    between atoms: _32  and  _33
REMARK   15  A    between atoms: _39  and  _41
REMARK   16  A    between atoms: _41  and  _42
REMARK   17  A    between atoms: _41  and  _44
REMARK   18  A    between atoms: _44  and  _45
REMARK   19  A    between atoms: _48  and  _50
REMARK   20  A    between atoms: _50  and  _51
REMARK   21  A    between atoms: _50  and  _53
REMARK   22  A    between atoms: _53  and  _54
REMARK   23  A    between atoms: _57  and  _59
REMARK   24  A    between atoms: _59  and  _60
REMARK   25  A    between atoms: _59  and  _62
REMARK   26  A    between atoms: _62  and  _63
REMARK   27  A    between atoms: _66  and  _68
REMARK   28  A    between atoms: _68  and  _69
REMARK   29  A    between atoms: _72  and  _74
REMARK   30  A    between atoms: _74  and  _75
REMARK   31  A    between atoms: _74  and  _77
REMARK   32  A    between atoms: _77  and  _78
REMARK   33  A    between atoms: _81  and  _83
REMARK   34  A    between atoms: _83  and  _84
REMARK   35  A    between atoms: _83  and  _86
REMARK   36  A    between atoms: _89  and  _91
REMARK   37  A    between atoms: _91  and  _92
REMARK   38  A    between atoms: _94  and  _96
REMARK   39  A    between atoms: _96  and  _97
REMARK   40  A    between atoms: _96  and  _99
REMARK   41  A    between atoms: _99  and  _100
REMARK   42  A    between atoms: _100  and  _101
REMARK   43  A    between atoms: _103  and  _105
REMARK   44  A    between atoms: _105  and  _106
REMARK   45  A    between atoms: _105  and  _108
REMARK   46  A    between atoms: _108  and  _109
REMARK   47  A    between atoms: _109  and  _110
REMARK   48  A    between atoms: _112  and  _114
REMARK   49  A    between atoms: _114  and  _115
REMARK   50  A    between atoms: _117  and  _119
REMARK   51  A    between atoms: _119  and  _120
REMARK   52  A    between atoms: _119  and  _122
REMARK   53  A    between atoms: _122  and  _123
REMARK   54  A    between atoms: _126  and  _128
REMARK   55  A    between atoms: _128  and  _129
REMARK   56  A    between atoms: _128  and  _131
REMARK   57  A    between atoms: _134  and  _136
REMARK   58  A    between atoms: _136  and  _137
REMARK   59  A    between atoms: _136  and  _139
REMARK   60  A    between atoms: _139  and  _140
REMARK   61  A    between atoms: _140  and  _141
REMARK   62  A    between atoms: _143  and  _145
REMARK   63  A    between atoms: _145  and  _146
REMARK   64  A    between atoms: _145  and  _148
REMARK   65  A    between atoms: _148  and  _149
REMARK   66  A    between atoms: _152  and  _154
REMARK   67  A    between atoms: _154  and  _155
REMARK   68  A    between atoms: _158  and  _160
REMARK   69  A    between atoms: _160  and  _161
REMARK   70  A    between atoms: _160  and  _163
REMARK   71  A    between atoms: _163  and  _164
REMARK   72  A    between atoms: _169  and  _171
REMARK   73  A    between atoms: _171  and  _172
REMARK   74  A    between atoms: _171  and  _174
REMARK   75  A    between atoms: _174  and  _175
REMARK   76  A    between atoms: _178  and  _180
REMARK   77  A    between atoms: _180  and  _181
REMARK   78  A    between atoms: _180  and  _183
REMARK   79  A    between atoms: _183  and  _184
REMARK   80  A    between atoms: _184  and  _185
REMARK   81  A    between atoms: _188  and  _190
REMARK   82  A    between atoms: _190  and  _191
REMARK   83  A    between atoms: _193  and  _195
REMARK   84  A    between atoms: _195  and  _196
REMARK   85  A    between atoms: _195  and  _198
REMARK   86  A    between atoms: _198  and  _199
REMARK   87  A    between atoms: _199  and  _200
REMARK   88  A    between atoms: _200  and  _201
REMARK   89  A    between atoms: _210  and  _212
REMARK   90  A    between atoms: _212  and  _213
REMARK   91  A    between atoms: _212  and  _215
REMARK   92  A    between atoms: _215  and  _216
REMARK   93  A    between atoms: _216  and  _217
REMARK   94  A    between atoms: _217  and  _218
REMARK   95  A    between atoms: _218  and  _219
REMARK   96  A    between atoms: _223  and  _225
REMARK   97  A    between atoms: _225  and  _226
REMARK   98  A    between atoms: _225  and  _228
REMARK   99  A    between atoms: _228  and  _229
REMARK  100  A    between atoms: _235  and  _237
REMARK  101  A    between atoms: _237  and  _238
REMARK  102  A    between atoms: _237  and  _240
REMARK  103  A    between atoms: _240  and  _241
REMARK  104  A    between atoms: _247  and  _249
REMARK  105  A    between atoms: _249  and  _250
REMARK  106  A    between atoms: _249  and  _252
REMARK  107  A    between atoms: _252  and  _253
REMARK  108  A    between atoms: _256  and  _258
REMARK  109  A    between atoms: _258  and  _259
REMARK  110  A    between atoms: _258  and  _261
REMARK  111  A    between atoms: _261  and  _262
REMARK  112  A    between atoms: _268  and  _270
REMARK  113  A    between atoms: _270  and  _271
REMARK  114  A    between atoms: _270  and  _273
REMARK  115  A    between atoms: _273  and  _274
REMARK  116  A    between atoms: _277  and  _279
REMARK  117  A    between atoms: _279  and  _280
REMARK  118  A    between atoms: _279  and  _282
REMARK  119  A    between atoms: _282  and  _283
REMARK  120  A    between atoms: _283  and  _284
REMARK  121  A    between atoms: _284  and  _285
REMARK  122  A    between atoms: _285  and  _286
REMARK  123  A    between atoms: _290  and  _292
REMARK  124  A    between atoms: _292  and  _293
REMARK  125  A    between atoms: _292  and  _295
REMARK  126  A    between atoms: _295  and  _296
REMARK  127  A    between atoms: _299  and  _301
REMARK  128  A    between atoms: _301  and  _302
REMARK  129  A    between atoms: _301  and  _304
REMARK  130  A    between atoms: _304  and  _305
REMARK  131  A    between atoms: _310  and  _312
REMARK  132  A    between atoms: _312  and  _313
REMARK  133  A    between atoms: _312  and  _315
REMARK  134  A    between atoms: _315  and  _316
REMARK  135  A    between atoms: _316  and  _317
REMARK  136  A    between atoms: _317  and  _318
REMARK  137  A    between atoms: _318  and  _319
REMARK  138  A    between atoms: _323  and  _325
REMARK  139  A    between atoms: _325  and  _326
REMARK  140  A    between atoms: _325  and  _328
REMARK  141  A    between atoms: _328  and  _329
REMARK  142  A    between atoms: _331  and  _333
REMARK  143  A    between atoms: _333  and  _334
REMARK  144  A    between atoms: _333  and  _336
REMARK  145  A    between atoms: _336  and  _337
REMARK  146  A    between atoms: _340  and  _342
REMARK  147  A    between atoms: _342  and  _343
REMARK  148  A    between atoms: _342  and  _345
REMARK  149  A    between atoms: _345  and  _346
REMARK  150  A    between atoms: _346  and  _347
REMARK  151  A    between atoms: _350  and  _352
REMARK  152  A    between atoms: _352  and  _353
REMARK  153  A    between atoms: _356  and  _357
REMARK  154  A    between atoms: _363  and  _364
REMARK  155  A    between atoms: _369  and  _371
REMARK  156  A    between atoms: _371  and  _372
REMARK  157  A    between atoms: _371  and  _374
REMARK  158  A    between atoms: _374  and  _375
REMARK  159  A    between atoms: _381  and  _383
REMARK  160  A    between atoms: _383  and  _384
REMARK  161  A    between atoms: _383  and  _386
REMARK  162  A    between atoms: _386  and  _387
REMARK  163  A    between atoms: _390  and  _392
REMARK  164  A    between atoms: _392  and  _393
REMARK  165  A    between atoms: _392  and  _395
REMARK  166  A    between atoms: _395  and  _396
REMARK  167  A    between atoms: _401  and  _403
REMARK  168  A    between atoms: _403  and  _404
REMARK  169  A    between atoms: _406  and  _408
REMARK  170  A    between atoms: _408  and  _409
REMARK  171  A    between atoms: _411  and  _413
REMARK  172  A    between atoms: _413  and  _414
REMARK  173  A    between atoms: _417  and  _419
REMARK  174  A    between atoms: _419  and  _420
REMARK  175  A    between atoms: _419  and  _422
REMARK  176  A    between atoms: _422  and  _423
REMARK  177  A    between atoms: _426  and  _428
REMARK  178  A    between atoms: _428  and  _429
REMARK  179  A    between atoms: _432  and  _434
REMARK  180  A    between atoms: _434  and  _435
REMARK  181  A    between atoms: _434  and  _437
REMARK  182  A    between atoms: _437  and  _438
REMARK  183  A    between atoms: _443  and  _445
REMARK  184  A    between atoms: _445  and  _446
REMARK  185  A    between atoms: _445  and  _448
REMARK  186  A    between atoms: _448  and  _449
REMARK  187  A    between atoms: _452  and  _454
REMARK  188  A    between atoms: _454  and  _455
REMARK  189  A    between atoms: _454  and  _457
REMARK  190  A    between atoms: _457  and  _458
REMARK  191  A    between atoms: _463  and  _465
REMARK  192  A    between atoms: _465  and  _466
REMARK  193  A    between atoms: _465  and  _468
REMARK  194  A    between atoms: _468  and  _469
REMARK  195  A    between atoms: _474  and  _475
REMARK  196  A    between atoms: _477  and  _479
REMARK  197  A    between atoms: _479  and  _480
REMARK  198  A    between atoms: _479  and  _482
REMARK  199  A    between atoms: _482  and  _483
REMARK  200  A    between atoms: _483  and  _484
REMARK  201  A    between atoms: _484  and  _485
REMARK  202  A    between atoms: _485  and  _486
REMARK  203  A    between atoms: _490  and  _492
REMARK  204  A    between atoms: _492  and  _493
REMARK  205  A    between atoms: _492  and  _495
REMARK  206  A    between atoms: _495  and  _496
REMARK  207  A    between atoms: _496  and  _497
REMARK  208  A    between atoms: _497  and  _498
REMARK  209  A    between atoms: _508  and  _509
REMARK  210  A    between atoms: _514  and  _516
REMARK  211  A    between atoms: _516  and  _517
REMARK  212  A    between atoms: _516  and  _519
REMARK  213  A    between atoms: _519  and  _520
REMARK  214  A    between atoms: _524  and  _525
REMARK  215  A    between atoms: _530  and  _532
REMARK  216  A    between atoms: _532  and  _533
REMARK  217  A    between atoms: _532  and  _535
REMARK  218  A    between atoms: _535  and  _536
REMARK  219  A    between atoms: _539  and  _541
REMARK  220  A    between atoms: _541  and  _542
REMARK  221  A    between atoms: _541  and  _544
REMARK  222  A    between atoms: _544  and  _545
REMARK  223  A    between atoms: _550  and  _551
REMARK  224  A    between atoms: _553  and  _555
REMARK  225  A    between atoms: _555  and  _556
REMARK  226  A    between atoms: _555  and  _558
REMARK  227  A    between atoms: _558  and  _559
REMARK  228  A    between atoms: _561  and  _563
REMARK  229  A    between atoms: _563  and  _564
REMARK  230  A    between atoms: _563  and  _566
REMARK  231  A    between atoms: _566  and  _567
REMARK  232  A    between atoms: _567  and  _568
REMARK                            x       y       z     vdW  Elec       q    Type
REMARK                         _______ _______ _______ _____ _____    ______ ____
ROOT
ATOM      1  O   HOH     1      17.247  57.366  33.548  0.00  0.00    +0.000 OA
ENDROOT
TORSDOF 0
REMARK  Name = ../refined-set-2016/4gah/4gah_pocket.pdb
REMARK  232 active torsions:
REMARK  status: ('A' for Active; 'I' for Inactive)
REMARK    1  A    between atoms: _1  and  _3
REMARK    2  A    between atoms: _3  and  _4
REMARK    3  A    between atoms: _3  and  _6
REMARK    4  A    between atoms: _6  and  _7
REMARK    5  A    between atoms: _7  and  _8
REMARK    6  A    between atoms: _8  and  _9
REMARK    7  A    between atoms: _18  and  _20
REMARK    8  A    between atoms: _20  and  _21
REMARK    9  A    between atoms: _20  and  _23
REMARK   10  A    between atoms: _23  and  _24
REMARK   11  A    between atoms: _27  and  _29
REMARK   12  A    between atoms: _29  and  _30
REMARK   13  A    between atoms: _29  and  _32
REMARK   14  A    between atoms: _32  and  _33
REMARK   15  A    between atoms: _39  and  _41
REMARK   16  A    between atoms: _41  and  _42
REMARK   17  A    between atoms: _41  and  _44
REMARK   18  A    between atoms: _44  and  _45
REMARK   19  A    between atoms: _48  and  _50
REMARK   20  A    between atoms: _50  and  _51
REMARK   21  A    between atoms: _50  and  _53
REMARK   22  A    between atoms: _53  and  _54
REMARK   23  A    between atoms: _57  and  _59
REMARK   24  A    between atoms: _59  and  _60
REMARK   25  A    between atoms: _59  and  _62
REMARK   26  A    between atoms: _62  and  _63
REMARK   27  A    between atoms: _66  and  _68
REMARK   28  A    between atoms: _68  and  _69
REMARK   29  A    between atoms: _72  and  _74
REMARK   30  A    between atoms: _74  and  _75
REMARK   31  A    between atoms: _74  and  _77
REMARK   32  A    between atoms: _77  and  _78
REMARK   33  A    between atoms: _81  and  _83
REMARK   34  A    between atoms: _83  and  _84
REMARK   35  A    between atoms: _83  and  _86
REMARK   36  A    between atoms: _89  and  _91
REMARK   37  A    between atoms: _91  and  _92
REMARK   38  A    between atoms: _94  and  _96
REMARK   39  A    between atoms: _96  and  _97
REMARK   40  A    between atoms: _96  and  _99
REMARK   41  A    between atoms: _99  and  _100
REMARK   42  A    between atoms: _100  and  _101
REMARK   43  A    between atoms: _103  and  _105
REMARK   44  A    between atoms: _105  and  _106
REMARK   45  A    between atoms: _105  and  _108
REMARK   46  A    between atoms: _108  and  _109
REMARK   47  A    between atoms: _109  and  _110
REMARK   48  A    between atoms: _112  and  _114
REMARK   49  A    between atoms: _114  and  _115
REMARK   50  A    between atoms: _117  and  _119
REMARK   51  A    between atoms: _119  and  _120
REMARK   52  A    between atoms: _119  and  _122
REMARK   53  A    between atoms: _122  and  _123
REMARK   54  A    between atoms: _126  and  _128
REMARK   55  A    between atoms: _128  and  _129
REMARK   56  A    between atoms: _128  and  _131
REMARK   57  A    between atoms: _134  and  _136
REMARK   58  A    between atoms: _136  and  _137
REMARK   59  A    between atoms: _136  and  _139
REMARK   60  A    between atoms: _139  and  _140
REMARK   61  A    between atoms: _140  and  _141
REMARK   62  A    between atoms: _143  and  _145
REMARK   63  A    between atoms: _145  and  _146
REMARK   64  A    between atoms: _145  and  _148
REMARK   65  A    between atoms: _148  and  _149
REMARK   66  A    between atoms: _152  and  _154
REMARK   67  A    between atoms: _154  and  _155
REMARK   68  A    between atoms: _158  and  _160
REMARK   69  A    between atoms: _160  and  _161
REMARK   70  A    between atoms: _160  and  _163
REMARK   71  A    between atoms: _163  and  _164
REMARK   72  A    between atoms: _169  and  _171
REMARK   73  A    between atoms: _171  and  _172
REMARK   74  A    between atoms: _171  and  _174
REMARK   75  A    between atoms: _174  and  _175
REMARK   76  A    between atoms: _178  and  _180
REMARK   77  A    between atoms: _180  and  _181
REMARK   78  A    between atoms: _180  and  _183
REMARK   79  A    between atoms: _183  and  _184
REMARK   80  A    between atoms: _184  and  _185
REMARK   81  A    between atoms: _188  and  _190
REMARK   82  A    between atoms: _190  and  _191
REMARK   83  A    between atoms: _193  and  _195
REMARK   84  A    between atoms: _195  and  _196
REMARK   85  A    between atoms: _195  and  _198
REMARK   86  A    between atoms: _198  and  _199
REMARK   87  A    between atoms: _199  and  _200
REMARK   88  A    between atoms: _200  and  _201
REMARK   89  A    between atoms: _210  and  _212
REMARK   90  A    between atoms: _212  and  _213
REMARK   91  A    between atoms: _212  and  _215
REMARK   92  A    between atoms: _215  and  _216
REMARK   93  A    between atoms: _216  and  _217
REMARK   94  A    between atoms: _217  and  _218
REMARK   95  A    between atoms: _218  and  _219
REMARK   96  A    between atoms: _223  and  _225
REMARK   97  A    between atoms: _225  and  _226
REMARK   98  A    between atoms: _225  and  _228
REMARK   99  A    between atoms: _228  and  _229
REMARK  100  A    between atoms: _235  and  _237
REMARK  101  A    between atoms: _237  and  _238
REMARK  102  A    between atoms: _237  and  _240
REMARK  103  A    between atoms: _240  and  _241
REMARK  104  A    between atoms: _247  and  _249
REMARK  105  A    between atoms: _249  and  _250
REMARK  106  A    between atoms: _249  and  _252
REMARK  107  A    between atoms: _252  and  _253
REMARK  108  A    between atoms: _256  and  _258
REMARK  109  A    between atoms: _258  and  _259
REMARK  110  A    between atoms: _258  and  _261
REMARK  111  A    between atoms: _261  and  _262
REMARK  112  A    between atoms: _268  and  _270
REMARK  113  A    between atoms: _270  and  _271
REMARK  114  A    between atoms: _270  and  _273
REMARK  115  A    between atoms: _273  and  _274
REMARK  116  A    between atoms: _277  and  _279
REMARK  117  A    between atoms: _279  and  _280
REMARK  118  A    between atoms: _279  and  _282
REMARK  119  A    between atoms: _282  and  _283
REMARK  120  A    between atoms: _283  and  _284
REMARK  121  A    between atoms: _284  and  _285
REMARK  122  A    between atoms: _285  and  _286
REMARK  123  A    between atoms: _290  and  _292
REMARK  124  A    between atoms: _292  and  _293
REMARK  125  A    between atoms: _292  and  _295
REMARK  126  A    between atoms: _295  and  _296
REMARK  127  A    between atoms: _299  and  _301
REMARK  128  A    between atoms: _301  and  _302
REMARK  129  A    between atoms: _301  and  _304
REMARK  130  A    between atoms: _304  and  _305
REMARK  131  A    between atoms: _310  and  _312
REMARK  132  A    between atoms: _312  and  _313
REMARK  133  A    between atoms: _312  and  _315
REMARK  134  A    between atoms: _315  and  _316
REMARK  135  A    between atoms: _316  and  _317
REMARK  136  A    between atoms: _317  and  _318
REMARK  137  A    between atoms: _318  and  _319
REMARK  138  A    between atoms: _323  and  _325
REMARK  139  A    between atoms: _325  and  _326
REMARK  140  A    between atoms: _325  and  _328
REMARK  141  A    between atoms: _328  and  _329
REMARK  142  A    between atoms: _331  and  _333
REMARK  143  A    between atoms: _333  and  _334
REMARK  144  A    between atoms: _333  and  _336
REMARK  145  A    between atoms: _336  and  _337
REMARK  146  A    between atoms: _340  and  _342
REMARK  147  A    between atoms: _342  and  _343
REMARK  148  A    between atoms: _342  and  _345
REMARK  149  A    between atoms: _345  and  _346
REMARK  150  A    between atoms: _346  and  _347
REMARK  151  A    between atoms: _350  and  _352
REMARK  152  A    between atoms: _352  and  _353
REMARK  153  A    between atoms: _356  and  _357
REMARK  154  A    between atoms: _363  and  _364
REMARK  155  A    between atoms: _369  and  _371
REMARK  156  A    between atoms: _371  and  _372
REMARK  157  A    between atoms: _371  and  _374
REMARK  158  A    between atoms: _374  and  _375
REMARK  159  A    between atoms: _381  and  _383
REMARK  160  A    between atoms: _383  and  _384
REMARK  161  A    between atoms: _383  and  _386
REMARK  162  A    between atoms: _386  and  _387
REMARK  163  A    between atoms: _390  and  _392
REMARK  164  A    between atoms: _392  and  _393
REMARK  165  A    between atoms: _392  and  _395
REMARK  166  A    between atoms: _395  and  _396
REMARK  167  A    between atoms: _401  and  _403
REMARK  168  A    between atoms: _403  and  _404
REMARK  169  A    between atoms: _406  and  _408
REMARK  170  A    between atoms: _408  and  _409
REMARK  171  A    between atoms: _411  and  _413
REMARK  172  A    between atoms: _413  and  _414
REMARK  173  A    between atoms: _417  and  _419
REMARK  174  A    between atoms: _419  and  _420
REMARK  175  A    between atoms: _419  and  _422
REMARK  176  A    between atoms: _422  and  _423
REMARK  177  A    between atoms: _426  and  _428
REMARK  178  A    between atoms: _428  and  _429
REMARK  179  A    between atoms: _432  and  _434
REMARK  180  A    between atoms: _434  and  _435
REMARK  181  A    between atoms: _434  and  _437
REMARK  182  A    between atoms: _437  and  _438
REMARK  183  A    between atoms: _443  and  _445
REMARK  184  A    between atoms: _445  and  _446
REMARK  185  A    between atoms: _445  and  _448
REMARK  186  A    between atoms: _448  and  _449
REMARK  187  A    between atoms: _452  and  _454
REMARK  188  A    between atoms: _454  and  _455
REMARK  189  A    between atoms: _454  and  _457
REMARK  190  A    between atoms: _457  and  _458
REMARK  191  A    between atoms: _463  and  _465
REMARK  192  A    between atoms: _465  and  _466
REMARK  193  A    between atoms: _465  and  _468
REMARK  194  A    between atoms: _468  and  _469
REMARK  195  A    between atoms: _474  and  _475
REMARK  196  A    between atoms: _477  and  _479
REMARK  197  A    between atoms: _479  and  _480
REMARK  198  A    between atoms: _479  and  _482
REMARK  199  A    between atoms: _482  and  _483
REMARK  200  A    between atoms: _483  and  _484
REMARK  201  A    between atoms: _484  and  _485
REMARK  202  A    between atoms: _485  and  _486
REMARK  203  A    between atoms: _490  and  _492
REMARK  204  A    between atoms: _492  and  _493
REMARK  205  A    between atoms: _492  and  _495
REMARK  206  A    between atoms: _495  and  _496
REMARK  207  A    between atoms: _496  and  _497
REMARK  208  A    between atoms: _497  and  _498
REMARK  209  A    between atoms: _508  and  _509
REMARK  210  A    between atoms: _514  and  _516
REMARK  211  A    between atoms: _516  and  _517
REMARK  212  A    between atoms: _516  and  _519
REMARK  213  A    between atoms: _519  and  _520
REMARK  214  A    between atoms: _524  and  _525
REMARK  215  A    between atoms: _530  and  _532
REMARK  216  A    between atoms: _532  and  _533
REMARK  217  A    between atoms: _532  and  _535
REMARK  218  A    between atoms: _535  and  _536
REMARK  219  A    between atoms: _539  and  _541
REMARK  220  A    between atoms: _541  and  _542
REMARK  221  A    between atoms: _541  and  _544
REMARK  222  A    between atoms: _544  and  _545
REMARK  223  A    between atoms: _550  and  _551
REMARK  224  A    between atoms: _553  and  _555
REMARK  225  A    between atoms: _555  and  _556
REMARK  226  A    between atoms: _555  and  _558
REMARK  227  A    between atoms: _558  and  _559
REMARK  228  A    between atoms: _561  and  _563
REMARK  229  A    between atoms: _563  and  _564
REMARK  230  A    between atoms: _563  and  _566
REMARK  231  A    between atoms: _566  and  _567
REMARK  232  A    between atoms: _567  and  _568
REMARK                            x       y       z     vdW  Elec       q    Type
REMARK                         _______ _______ _______ _____ _____    ______ ____
ROOT
ATOM      1  O   HOH     1      32.191  51.927  43.258  0.00  0.00    +0.000 OA
ENDROOT
TORSDOF 0
REMARK  Name = ../refined-set-2016/4gah/4gah_pocket.pdb
REMARK  232 active torsions:
REMARK  status: ('A' for Active; 'I' for Inactive)
REMARK    1  A    between atoms: _1  and  _3
REMARK    2  A    between atoms: _3  and  _4
REMARK    3  A    between atoms: _3  and  _6
REMARK    4  A    between atoms: _6  and  _7
REMARK    5  A    between atoms: _7  and  _8
REMARK    6  A    between atoms: _8  and  _9
REMARK    7  A    between atoms: _18  and  _20
REMARK    8  A    between atoms: _20  and  _21
REMARK    9  A    between atoms: _20  and  _23
REMARK   10  A    between atoms: _23  and  _24
REMARK   11  A    between atoms: _27  and  _29
REMARK   12  A    between atoms: _29  and  _30
REMARK   13  A    between atoms: _29  and  _32
REMARK   14  A    between atoms: _32  and  _33
REMARK   15  A    between atoms: _39  and  _41
REMARK   16  A    between atoms: _41  and  _42
REMARK   17  A    between atoms: _41  and  _44
REMARK   18  A    between atoms: _44  and  _45
REMARK   19  A    between atoms: _48  and  _50
REMARK   20  A    between atoms: _50  and  _51
REMARK   21  A    between atoms: _50  and  _53
REMARK   22  A    between atoms: _53  and  _54
REMARK   23  A    between atoms: _57  and  _59
REMARK   24  A    between atoms: _59  and  _60
REMARK   25  A    between atoms: _59  and  _62
REMARK   26  A    between atoms: _62  and  _63
REMARK   27  A    between atoms: _66  and  _68
REMARK   28  A    between atoms: _68  and  _69
REMARK   29  A    between atoms: _72  and  _74
REMARK   30  A    between atoms: _74  and  _75
REMARK   31  A    between atoms: _74  and  _77
REMARK   32  A    between atoms: _77  and  _78
REMARK   33  A    between atoms: _81  and  _83
REMARK   34  A    between atoms: _83  and  _84
REMARK   35  A    between atoms: _83  and  _86
REMARK   36  A    between atoms: _89  and  _91
REMARK   37  A    between atoms: _91  and  _92
REMARK   38  A    between atoms: _94  and  _96
REMARK   39  A    between atoms: _96  and  _97
REMARK   40  A    between atoms: _96  and  _99
REMARK   41  A    between atoms: _99  and  _100
REMARK   42  A    between atoms: _100  and  _101
REMARK   43  A    between atoms: _103  and  _105
REMARK   44  A    between atoms: _105  and  _106
REMARK   45  A    between atoms: _105  and  _108
REMARK   46  A    between atoms: _108  and  _109
REMARK   47  A    between atoms: _109  and  _110
REMARK   48  A    between atoms: _112  and  _114
REMARK   49  A    between atoms: _114  and  _115
REMARK   50  A    between atoms: _117  and  _119
REMARK   51  A    between atoms: _119  and  _120
REMARK   52  A    between atoms: _119  and  _122
REMARK   53  A    between atoms: _122  and  _123
REMARK   54  A    between atoms: _126  and  _128
REMARK   55  A    between atoms: _128  and  _129
REMARK   56  A    between atoms: _128  and  _131
REMARK   57  A    between atoms: _134  and  _136
REMARK   58  A    between atoms: _136  and  _137
REMARK   59  A    between atoms: _136  and  _139
REMARK   60  A    between atoms: _139  and  _140
REMARK   61  A    between atoms: _140  and  _141
REMARK   62  A    between atoms: _143  and  _145
REMARK   63  A    between atoms: _145  and  _146
REMARK   64  A    between atoms: _145  and  _148
REMARK   65  A    between atoms: _148  and  _149
REMARK   66  A    between atoms: _152  and  _154
REMARK   67  A    between atoms: _154  and  _155
REMARK   68  A    between atoms: _158  and  _160
REMARK   69  A    between atoms: _160  and  _161
REMARK   70  A    between atoms: _160  and  _163
REMARK   71  A    between atoms: _163  and  _164
REMARK   72  A    between atoms: _169  and  _171
REMARK   73  A    between atoms: _171  and  _172
REMARK   74  A    between atoms: _171  and  _174
REMARK   75  A    between atoms: _174  and  _175
REMARK   76  A    between atoms: _178  and  _180
REMARK   77  A    between atoms: _180  and  _181
REMARK   78  A    between atoms: _180  and  _183
REMARK   79  A    between atoms: _183  and  _184
REMARK   80  A    between atoms: _184  and  _185
REMARK   81  A    between atoms: _188  and  _190
REMARK   82  A    between atoms: _190  and  _191
REMARK   83  A    between atoms: _193  and  _195
REMARK   84  A    between atoms: _195  and  _196
REMARK   85  A    between atoms: _195  and  _198
REMARK   86  A    between atoms: _198  and  _199
REMARK   87  A    between atoms: _199  and  _200
REMARK   88  A    between atoms: _200  and  _201
REMARK   89  A    between atoms: _210  and  _212
REMARK   90  A    between atoms: _212  and  _213
REMARK   91  A    between atoms: _212  and  _215
REMARK   92  A    between atoms: _215  and  _216
REMARK   93  A    between atoms: _216  and  _217
REMARK   94  A    between atoms: _217  and  _218
REMARK   95  A    between atoms: _218  and  _219
REMARK   96  A    between atoms: _223  and  _225
REMARK   97  A    between atoms: _225  and  _226
REMARK   98  A    between atoms: _225  and  _228
REMARK   99  A    between atoms: _228  and  _229
REMARK  100  A    between atoms: _235  and  _237
REMARK  101  A    between atoms: _237  and  _238
REMARK  102  A    between atoms: _237  and  _240
REMARK  103  A    between atoms: _240  and  _241
REMARK  104  A    between atoms: _247  and  _249
REMARK  105  A    between atoms: _249  and  _250
REMARK  106  A    between atoms: _249  and  _252
REMARK  107  A    between atoms: _252  and  _253
REMARK  108  A    between atoms: _256  and  _258
REMARK  109  A    between atoms: _258  and  _259
REMARK  110  A    between atoms: _258  and  _261
REMARK  111  A    between atoms: _261  and  _262
REMARK  112  A    between atoms: _268  and  _270
REMARK  113  A    between atoms: _270  and  _271
REMARK  114  A    between atoms: _270  and  _273
REMARK  115  A    between atoms: _273  and  _274
REMARK  116  A    between atoms: _277  and  _279
REMARK  117  A    between atoms: _279  and  _280
REMARK  118  A    between atoms: _279  and  _282
REMARK  119  A    between atoms: _282  and  _283
REMARK  120  A    between atoms: _283  and  _284
REMARK  121  A    between atoms: _284  and  _285
REMARK  122  A    between atoms: _285  and  _286
REMARK  123  A    between atoms: _290  and  _292
REMARK  124  A    between atoms: _292  and  _293
REMARK  125  A    between atoms: _292  and  _295
REMARK  126  A    between atoms: _295  and  _296
REMARK  127  A    between atoms: _299  and  _301
REMARK  128  A    between atoms: _301  and  _302
REMARK  129  A    between atoms: _301  and  _304
REMARK  130  A    between atoms: _304  and  _305
REMARK  131  A    between atoms: _310  and  _312
REMARK  132  A    between atoms: _312  and  _313
REMARK  133  A    between atoms: _312  and  _315
REMARK  134  A    between atoms: _315  and  _316
REMARK  135  A    between atoms: _316  and  _317
REMARK  136  A    between atoms: _317  and  _318
REMARK  137  A    between atoms: _318  and  _319
REMARK  138  A    between atoms: _323  and  _325
REMARK  139  A    between atoms: _325  and  _326
REMARK  140  A    between atoms: _325  and  _328
REMARK  141  A    between atoms: _328  and  _329
REMARK  142  A    between atoms: _331  and  _333
REMARK  143  A    between atoms: _333  and  _334
REMARK  144  A    between atoms: _333  and  _336
REMARK  145  A    between atoms: _336  and  _337
REMARK  146  A    between atoms: _340  and  _342
REMARK  147  A    between atoms: _342  and  _343
REMARK  148  A    between atoms: _342  and  _345
REMARK  149  A    between atoms: _345  and  _346
REMARK  150  A    between atoms: _346  and  _347
REMARK  151  A    between atoms: _350  and  _352
REMARK  152  A    between atoms: _352  and  _353
REMARK  153  A    between atoms: _356  and  _357
REMARK  154  A    between atoms: _363  and  _364
REMARK  155  A    between atoms: _369  and  _371
REMARK  156  A    between atoms: _371  and  _372
REMARK  157  A    between atoms: _371  and  _374
REMARK  158  A    between atoms: _374  and  _375
REMARK  159  A    between atoms: _381  and  _383
REMARK  160  A    between atoms: _383  and  _384
REMARK  161  A    between atoms: _383  and  _386
REMARK  162  A    between atoms: _386  and  _387
REMARK  163  A    between atoms: _390  and  _392
REMARK  164  A    between atoms: _392  and  _393
REMARK  165  A    between atoms: _392  and  _395
REMARK  166  A    between atoms: _395  and  _396
REMARK  167  A    between atoms: _401  and  _403
REMARK  168  A    between atoms: _403  and  _404
REMARK  169  A    between atoms: _406  and  _408
REMARK  170  A    between atoms: _408  and  _409
REMARK  171  A    between atoms: _411  and  _413
REMARK  172  A    between atoms: _413  and  _414
REMARK  173  A    between atoms: _417  and  _419
REMARK  174  A    between atoms: _419  and  _420
REMARK  175  A    between atoms: _419  and  _422
REMARK  176  A    between atoms: _422  and  _423
REMARK  177  A    between atoms: _426  and  _428
REMARK  178  A    between atoms: _428  and  _429
REMARK  179  A    between atoms: _432  and  _434
REMARK  180  A    between atoms: _434  and  _435
REMARK  181  A    between atoms: _434  and  _437
REMARK  182  A    between atoms: _437  and  _438
REMARK  183  A    between atoms: _443  and  _445
REMARK  184  A    between atoms: _445  and  _446
REMARK  185  A    between atoms: _445  and  _448
REMARK  186  A    between atoms: _448  and  _449
REMARK  187  A    between atoms: _452  and  _454
REMARK  188  A    between atoms: _454  and  _455
REMARK  189  A    between atoms: _454  and  _457
REMARK  190  A    between atoms: _457  and  _458
REMARK  191  A    between atoms: _463  and  _465
REMARK  192  A    between atoms: _465  and  _466
REMARK  193  A    between atoms: _465  and  _468
REMARK  194  A    between atoms: _468  and  _469
REMARK  195  A    between atoms: _474  and  _475
REMARK  196  A    between atoms: _477  and  _479
REMARK  197  A    between atoms: _479  and  _480
REMARK  198  A    between atoms: _479  and  _482
REMARK  199  A    between atoms: _482  and  _483
REMARK  200  A    between atoms: _483  and  _484
REMARK  201  A    between atoms: _484  and  _485
REMARK  202  A    between atoms: _485  and  _486
REMARK  203  A    between atoms: _490  and  _492
REMARK  204  A    between atoms: _492  and  _493
REMARK  205  A    between atoms: _492  and  _495
REMARK  206  A    between atoms: _495  and  _496
REMARK  207  A    between atoms: _496  and  _497
REMARK  208  A    between atoms: _497  and  _498
REMARK  209  A    between atoms: _508  and  _509
REMARK  210  A    between atoms: _514  and  _516
REMARK  211  A    between atoms: _516  and  _517
REMARK  212  A    between atoms: _516  and  _519
REMARK  213  A    between atoms: _519  and  _520
REMARK  214  A    between atoms: _524  and  _525
REMARK  215  A    between atoms: _530  and  _532
REMARK  216  A    between atoms: _532  and  _533
REMARK  217  A    between atoms: _532  and  _535
REMARK  218  A    between atoms: _535  and  _536
REMARK  219  A    between atoms: _539  and  _541
REMARK  220  A    between atoms: _541  and  _542
REMARK  221  A    between atoms: _541  and  _544
REMARK  222  A    between atoms: _544  and  _545
REMARK  223  A    between atoms: _550  and  _551
REMARK  224  A    between atoms: _553  and  _555
REMARK  225  A    between atoms: _555  and  _556
REMARK  226  A    between atoms: _555  and  _558
REMARK  227  A    between atoms: _558  and  _559
REMARK  228  A    between atoms: _561  and  _563
REMARK  229  A    between atoms: _563  and  _564
REMARK  230  A    between atoms: _563  and  _566
REMARK  231  A    between atoms: _566  and  _567
REMARK  232  A    between atoms: _567  and  _568
REMARK                            x       y       z     vdW  Elec       q    Type
REMARK                         _______ _______ _______ _____ _____    ______ ____
ROOT
ATOM      1  O   HOH     1      22.366  72.461  45.349  0.00  0.00    +0.000 OA
ENDROOT
TORSDOF 0
