REMARK  Name = ../refined-set-2016/3agl/3agl_pocket.pdb
REMARK  332 active torsions:
REMARK  status: ('A' for Active; 'I' for Inactive)
REMARK    1  A    between atoms: _1  and  _3
REMARK    2  A    between atoms: _3  and  _4
REMARK    3  A    between atoms: _3  and  _6
REMARK    4  A    between atoms: _6  and  _7
REMARK    5  A    between atoms: _10  and  _12
REMARK    6  A    between atoms: _12  and  _13
REMARK    7  A    between atoms: _12  and  _15
REMARK    8  A    between atoms: _15  and  _16
REMARK    9  A    between atoms: _19  and  _21
REMARK   10  A    between atoms: _21  and  _22
REMARK   11  A    between atoms: _24  and  _26
REMARK   12  A    between atoms: _26  and  _27
REMARK   13  A    between atoms: _26  and  _29
REMARK   14  A    between atoms: _29  and  _30
REMARK   15  A    between atoms: _33  and  _35
REMARK   16  A    between atoms: _35  and  _36
REMARK   17  A    between atoms: _38  and  _40
REMARK   18  A    between atoms: _40  and  _41
REMARK   19  A    between atoms: _40  and  _43
REMARK   20  A    between atoms: _43  and  _44
REMARK   21  A    between atoms: _46  and  _48
REMARK   22  A    between atoms: _48  and  _49
REMARK   23  A    between atoms: _48  and  _51
REMARK   24  A    between atoms: _51  and  _52
REMARK   25  A    between atoms: _58  and  _60
REMARK   26  A    between atoms: _60  and  _61
REMARK   27  A    between atoms: _63  and  _65
REMARK   28  A    between atoms: _65  and  _66
REMARK   29  A    between atoms: _65  and  _68
REMARK   30  A    between atoms: _68  and  _69
REMARK   31  A    between atoms: _69  and  _70
REMARK   32  A    between atoms: _70  and  _71
REMARK   33  A    between atoms: _80  and  _82
REMARK   34  A    between atoms: _82  and  _83
REMARK   35  A    between atoms: _82  and  _85
REMARK   36  A    between atoms: _88  and  _90
REMARK   37  A    between atoms: _90  and  _91
REMARK   38  A    between atoms: _90  and  _93
REMARK   39  A    between atoms: _93  and  _94
REMARK   40  A    between atoms: _94  and  _95
REMARK   41  A    between atoms: _97  and  _99
REMARK   42  A    between atoms: _99  and  _100
REMARK   43  A    between atoms: _99  and  _102
REMARK   44  A    between atoms: _102  and  _103
REMARK   45  A    between atoms: _106  and  _108
REMARK   46  A    between atoms: _108  and  _109
REMARK   47  A    between atoms: _108  and  _111
REMARK   48  A    between atoms: _111  and  _112
REMARK   49  A    between atoms: _117  and  _118
REMARK   50  A    between atoms: _120  and  _122
REMARK   51  A    between atoms: _122  and  _123
REMARK   52  A    between atoms: _126  and  _128
REMARK   53  A    between atoms: _128  and  _129
REMARK   54  A    between atoms: _128  and  _131
REMARK   55  A    between atoms: _131  and  _132
REMARK   56  A    between atoms: _132  and  _133
REMARK   57  A    between atoms: _135  and  _137
REMARK   58  A    between atoms: _137  and  _138
REMARK   59  A    between atoms: _137  and  _140
REMARK   60  A    between atoms: _140  and  _141
REMARK   61  A    between atoms: _141  and  _142
REMARK   62  A    between atoms: _142  and  _143
REMARK   63  A    between atoms: _143  and  _144
REMARK   64  A    between atoms: _148  and  _150
REMARK   65  A    between atoms: _150  and  _151
REMARK   66  A    between atoms: _150  and  _153
REMARK   67  A    between atoms: _153  and  _154
REMARK   68  A    between atoms: _157  and  _159
REMARK   69  A    between atoms: _159  and  _160
REMARK   70  A    between atoms: _159  and  _162
REMARK   71  A    between atoms: _162  and  _163
REMARK   72  A    between atoms: _166  and  _168
REMARK   73  A    between atoms: _168  and  _169
REMARK   74  A    between atoms: _168  and  _171
REMARK   75  A    between atoms: _171  and  _172
REMARK   76  A    between atoms: _175  and  _177
REMARK   77  A    between atoms: _177  and  _178
REMARK   78  A    between atoms: _177  and  _180
REMARK   79  A    between atoms: _180  and  _181
REMARK   80  A    between atoms: _181  and  _182
REMARK   81  A    between atoms: _182  and  _183
REMARK   82  A    between atoms: _183  and  _184
REMARK   83  A    between atoms: _188  and  _190
REMARK   84  A    between atoms: _190  and  _191
REMARK   85  A    between atoms: _190  and  _193
REMARK   86  A    between atoms: _196  and  _198
REMARK   87  A    between atoms: _198  and  _199
REMARK   88  A    between atoms: _198  and  _201
REMARK   89  A    between atoms: _201  and  _202
REMARK   90  A    between atoms: _205  and  _207
REMARK   91  A    between atoms: _207  and  _208
REMARK   92  A    between atoms: _207  and  _210
REMARK   93  A    between atoms: _210  and  _211
REMARK   94  A    between atoms: _211  and  _212
REMARK   95  A    between atoms: _217  and  _219
REMARK   96  A    between atoms: _219  and  _220
REMARK   97  A    between atoms: _219  and  _222
REMARK   98  A    between atoms: _222  and  _223
REMARK   99  A    between atoms: _228  and  _230
REMARK  100  A    between atoms: _230  and  _231
REMARK  101  A    between atoms: _230  and  _233
REMARK  102  A    between atoms: _233  and  _234
REMARK  103  A    between atoms: _237  and  _239
REMARK  104  A    between atoms: _239  and  _240
REMARK  105  A    between atoms: _239  and  _242
REMARK  106  A    between atoms: _242  and  _243
REMARK  107  A    between atoms: _243  and  _244
REMARK  108  A    between atoms: _247  and  _249
REMARK  109  A    between atoms: _249  and  _250
REMARK  110  A    between atoms: _249  and  _252
REMARK  111  A    between atoms: _252  and  _253
REMARK  112  A    between atoms: _256  and  _258
REMARK  113  A    between atoms: _258  and  _259
REMARK  114  A    between atoms: _258  and  _261
REMARK  115  A    between atoms: _264  and  _266
REMARK  116  A    between atoms: _266  and  _267
REMARK  117  A    between atoms: _266  and  _269
REMARK  118  A    between atoms: _269  and  _270
REMARK  119  A    between atoms: _270  and  _271
REMARK  120  A    between atoms: _271  and  _272
REMARK  121  A    between atoms: _272  and  _273
REMARK  122  A    between atoms: _277  and  _279
REMARK  123  A    between atoms: _279  and  _280
REMARK  124  A    between atoms: _279  and  _282
REMARK  125  A    between atoms: _282  and  _283
REMARK  126  A    between atoms: _286  and  _288
REMARK  127  A    between atoms: _288  and  _289
REMARK  128  A    between atoms: _288  and  _291
REMARK  129  A    between atoms: _291  and  _292
REMARK  130  A    between atoms: _292  and  _293
REMARK  131  A    between atoms: _296  and  _298
REMARK  132  A    between atoms: _298  and  _299
REMARK  133  A    between atoms: _298  and  _301
REMARK  134  A    between atoms: _301  and  _302
REMARK  135  A    between atoms: _302  and  _303
REMARK  136  A    between atoms: _305  and  _307
REMARK  137  A    between atoms: _307  and  _308
REMARK  138  A    between atoms: _307  and  _310
REMARK  139  A    between atoms: _313  and  _315
REMARK  140  A    between atoms: _315  and  _316
REMARK  141  A    between atoms: _315  and  _318
REMARK  142  A    between atoms: _318  and  _319
REMARK  143  A    between atoms: _319  and  _320
REMARK  144  A    between atoms: _322  and  _324
REMARK  145  A    between atoms: _324  and  _325
REMARK  146  A    between atoms: _324  and  _327
REMARK  147  A    between atoms: _327  and  _328
REMARK  148  A    between atoms: _328  and  _329
REMARK  149  A    between atoms: _332  and  _334
REMARK  150  A    between atoms: _334  and  _335
REMARK  151  A    between atoms: _334  and  _337
REMARK  152  A    between atoms: _337  and  _338
REMARK  153  A    between atoms: _343  and  _344
REMARK  154  A    between atoms: _346  and  _348
REMARK  155  A    between atoms: _348  and  _349
REMARK  156  A    between atoms: _348  and  _351
REMARK  157  A    between atoms: _355  and  _356
REMARK  158  A    between atoms: _361  and  _363
REMARK  159  A    between atoms: _363  and  _364
REMARK  160  A    between atoms: _366  and  _368
REMARK  161  A    between atoms: _368  and  _369
REMARK  162  A    between atoms: _371  and  _373
REMARK  163  A    between atoms: _373  and  _374
REMARK  164  A    between atoms: _373  and  _376
REMARK  165  A    between atoms: _376  and  _377
REMARK  166  A    between atoms: _377  and  _378
REMARK  167  A    between atoms: _381  and  _383
REMARK  168  A    between atoms: _383  and  _384
REMARK  169  A    between atoms: _383  and  _386
REMARK  170  A    between atoms: _386  and  _387
REMARK  171  A    between atoms: _387  and  _388
REMARK  172  A    between atoms: _390  and  _392
REMARK  173  A    between atoms: _392  and  _393
REMARK  174  A    between atoms: _392  and  _395
REMARK  175  A    between atoms: _395  and  _396
REMARK  176  A    between atoms: _402  and  _404
REMARK  177  A    between atoms: _404  and  _405
REMARK  178  A    between atoms: _404  and  _407
REMARK  179  A    between atoms: _407  and  _408
REMARK  180  A    between atoms: _410  and  _412
REMARK  181  A    between atoms: _412  and  _413
REMARK  182  A    between atoms: _412  and  _415
REMARK  183  A    between atoms: _415  and  _416
REMARK  184  A    between atoms: _419  and  _421
REMARK  185  A    between atoms: _421  and  _422
REMARK  186  A    between atoms: _421  and  _424
REMARK  187  A    between atoms: _424  and  _425
REMARK  188  A    between atoms: _425  and  _426
REMARK  189  A    between atoms: _426  and  _427
REMARK  190  A    between atoms: _436  and  _438
REMARK  191  A    between atoms: _438  and  _439
REMARK  192  A    between atoms: _438  and  _441
REMARK  193  A    between atoms: _441  and  _442
REMARK  194  A    between atoms: _447  and  _448
REMARK  195  A    between atoms: _450  and  _452
REMARK  196  A    between atoms: _452  and  _453
REMARK  197  A    between atoms: _452  and  _455
REMARK  198  A    between atoms: _455  and  _456
REMARK  199  A    between atoms: _459  and  _461
REMARK  200  A    between atoms: _461  and  _462
REMARK  201  A    between atoms: _461  and  _464
REMARK  202  A    between atoms: _464  and  _465
REMARK  203  A    between atoms: _468  and  _470
REMARK  204  A    between atoms: _470  and  _471
REMARK  205  A    between atoms: _470  and  _473
REMARK  206  A    between atoms: _473  and  _474
REMARK  207  A    between atoms: _474  and  _475
REMARK  208  A    between atoms: _475  and  _476
REMARK  209  A    between atoms: _476  and  _477
REMARK  210  A    between atoms: _482  and  _483
REMARK  211  A    between atoms: _488  and  _490
REMARK  212  A    between atoms: _490  and  _491
REMARK  213  A    between atoms: _490  and  _493
REMARK  214  A    between atoms: _493  and  _494
REMARK  215  A    between atoms: _494  and  _495
REMARK  216  A    between atoms: _498  and  _500
REMARK  217  A    between atoms: _500  and  _501
REMARK  218  A    between atoms: _500  and  _503
REMARK  219  A    between atoms: _503  and  _504
REMARK  220  A    between atoms: _509  and  _511
REMARK  221  A    between atoms: _511  and  _512
REMARK  222  A    between atoms: _511  and  _514
REMARK  223  A    between atoms: _514  and  _515
REMARK  224  A    between atoms: _518  and  _520
REMARK  225  A    between atoms: _520  and  _521
REMARK  226  A    between atoms: _520  and  _523
REMARK  227  A    between atoms: _523  and  _524
REMARK  228  A    between atoms: _527  and  _529
REMARK  229  A    between atoms: _529  and  _530
REMARK  230  A    between atoms: _529  and  _532
REMARK  231  A    between atoms: _532  and  _533
REMARK  232  A    between atoms: _536  and  _538
REMARK  233  A    between atoms: _538  and  _539
REMARK  234  A    between atoms: _538  and  _541
REMARK  235  A    between atoms: _541  and  _542
REMARK  236  A    between atoms: _542  and  _543
REMARK  237  A    between atoms: _548  and  _550
REMARK  238  A    between atoms: _550  and  _551
REMARK  239  A    between atoms: _550  and  _553
REMARK  240  A    between atoms: _556  and  _558
REMARK  241  A    between atoms: _558  and  _559
REMARK  242  A    between atoms: _558  and  _561
REMARK  243  A    between atoms: _561  and  _562
REMARK  244  A    between atoms: _565  and  _567
REMARK  245  A    between atoms: _567  and  _568
REMARK  246  A    between atoms: _567  and  _570
REMARK  247  A    between atoms: _570  and  _571
REMARK  248  A    between atoms: _574  and  _576
REMARK  249  A    between atoms: _576  and  _577
REMARK  250  A    between atoms: _576  and  _579
REMARK  251  A    between atoms: _579  and  _580
REMARK  252  A    between atoms: _586  and  _588
REMARK  253  A    between atoms: _588  and  _589
REMARK  254  A    between atoms: _591  and  _593
REMARK  255  A    between atoms: _593  and  _594
REMARK  256  A    between atoms: _593  and  _596
REMARK  257  A    between atoms: _596  and  _597
REMARK  258  A    between atoms: _603  and  _605
REMARK  259  A    between atoms: _605  and  _606
REMARK  260  A    between atoms: _605  and  _608
REMARK  261  A    between atoms: _610  and  _612
REMARK  262  A    between atoms: _612  and  _613
REMARK  263  A    between atoms: _615  and  _617
REMARK  264  A    between atoms: _617  and  _618
REMARK  265  A    between atoms: _617  and  _620
REMARK  266  A    between atoms: _620  and  _621
REMARK  267  A    between atoms: _625  and  _626
REMARK  268  A    between atoms: _631  and  _633
REMARK  269  A    between atoms: _633  and  _634
REMARK  270  A    between atoms: _633  and  _636
REMARK  271  A    between atoms: _636  and  _637
REMARK  272  A    between atoms: _637  and  _638
REMARK  273  A    between atoms: _641  and  _643
REMARK  274  A    between atoms: _643  and  _644
REMARK  275  A    between atoms: _643  and  _646
REMARK  276  A    between atoms: _646  and  _647
REMARK  277  A    between atoms: _652  and  _653
REMARK  278  A    between atoms: _655  and  _657
REMARK  279  A    between atoms: _657  and  _658
REMARK  280  A    between atoms: _657  and  _660
REMARK  281  A    between atoms: _663  and  _665
REMARK  282  A    between atoms: _665  and  _666
REMARK  283  A    between atoms: _665  and  _668
REMARK  284  A    between atoms: _668  and  _669
REMARK  285  A    between atoms: _672  and  _674
REMARK  286  A    between atoms: _674  and  _675
REMARK  287  A    between atoms: _674  and  _677
REMARK  288  A    between atoms: _677  and  _678
REMARK  289  A    between atoms: _678  and  _679
REMARK  290  A    between atoms: _682  and  _684
REMARK  291  A    between atoms: _684  and  _685
REMARK  292  A    between atoms: _684  and  _687
REMARK  293  A    between atoms: _687  and  _688
REMARK  294  A    between atoms: _688  and  _689
REMARK  295  A    between atoms: _691  and  _693
REMARK  296  A    between atoms: _693  and  _694
REMARK  297  A    between atoms: _696  and  _698
REMARK  298  A    between atoms: _698  and  _699
REMARK  299  A    between atoms: _698  and  _701
REMARK  300  A    between atoms: _701  and  _702
REMARK  301  A    between atoms: _707  and  _708
REMARK  302  A    between atoms: _711  and  _712
REMARK  303  A    between atoms: _718  and  _719
REMARK  304  A    between atoms: _724  and  _726
REMARK  305  A    between atoms: _726  and  _727
REMARK  306  A    between atoms: _726  and  _729
REMARK  307  A    between atoms: _729  and  _730
REMARK  308  A    between atoms: _736  and  _738
REMARK  309  A    between atoms: _738  and  _739
REMARK  310  A    between atoms: _738  and  _741
REMARK  311  A    between atoms: _741  and  _742
REMARK  312  A    between atoms: _748  and  _750
REMARK  313  A    between atoms: _750  and  _751
REMARK  314  A    between atoms: _750  and  _753
REMARK  315  A    between atoms: _753  and  _754
REMARK  316  A    between atoms: _757  and  _759
REMARK  317  A    between atoms: _759  and  _760
REMARK  318  A    between atoms: _759  and  _762
REMARK  319  A    between atoms: _762  and  _763
REMARK  320  A    between atoms: _768  and  _770
REMARK  321  A    between atoms: _770  and  _771
REMARK  322  A    between atoms: _770  and  _773
REMARK  323  A    between atoms: _773  and  _774
REMARK  324  A    between atoms: _780  and  _782
REMARK  325  A    between atoms: _782  and  _783
REMARK  326  A    between atoms: _782  and  _785
REMARK  327  A    between atoms: _785  and  _786
REMARK  328  A    between atoms: _789  and  _791
REMARK  329  A    between atoms: _791  and  _792
REMARK  330  A    between atoms: _791  and  _794
REMARK  331  A    between atoms: _794  and  _795
REMARK  332  A    between atoms: _800  and  _801
REMARK                            x       y       z     vdW  Elec       q    Type
REMARK                         _______ _______ _______ _____ _____    ______ ____
ROOT
ATOM      1  CA  PHE A   7     -14.103  17.262  12.442  0.00  0.00    +0.153 C 
ENDROOT
BRANCH   1   2
ATOM      2  C   PHE A   7     -14.316  17.178  10.919  0.00  0.00    +0.241 C 
ATOM      3  N   GLY A   8     -15.222  16.325  10.485  0.00  0.00    -0.295 N 
ATOM      4  H   GLY A   8     -15.772  15.760  11.163  0.00  0.00    +0.150 HD
ATOM      5  O   PHE A   7     -13.678  17.879  10.159  0.00  0.00    -0.273 OA
BRANCH   3   6
ATOM      6  CA  GLY A   8     -15.451  16.176   9.064  0.00  0.00    +0.176 C 
BRANCH   6   7
ATOM      7  C   GLY A   8     -16.730  15.445   8.783  0.00  0.00    +0.243 C 
ATOM      8  O   GLY A   8     -17.508  15.147   9.697  0.00  0.00    -0.273 OA
ATOM      9  N   ARG A   9     -16.934  15.145   7.505  0.00  0.00    -0.297 N 
ATOM     10  H   ARG A   9     -16.254  15.480   6.793  0.00  0.00    +0.150 HD
BRANCH   9  11
ATOM     11  CA  ARG A   9     -18.069  14.370   7.079  0.00  0.00    +0.149 C 
BRANCH  11  12
ATOM     12  C   ARG A   9     -17.763  13.680   5.752  0.00  0.00    +0.241 C 
ATOM     13  N   VAL A  10     -18.638  12.765   5.368  0.00  0.00    -0.297 N 
ATOM     14  H   VAL A  10     -19.422  12.506   6.000  0.00  0.00    +0.150 HD
ATOM     15  O   ARG A   9     -16.735  13.963   5.096  0.00  0.00    -0.273 OA
BRANCH  13  16
ATOM     16  CA  VAL A  10     -18.516  12.117   4.071  0.00  0.00    +0.149 C 
BRANCH  16  17
ATOM     17  C   VAL A  10     -19.781  12.365   3.265  0.00  0.00    +0.241 C 
ATOM     18  O   VAL A  10     -20.913  12.124   3.738  0.00  0.00    -0.273 OA
ATOM     19  N   MET A  11     -19.579  12.862   2.046  0.00  0.00    -0.297 N 
ATOM     20  H   MET A  11     -18.605  12.981   1.702  0.00  0.00    +0.150 HD
BRANCH  19  21
ATOM     21  CA  MET A  11     -20.679  13.240   1.189  0.00  0.00    +0.149 C 
BRANCH  21  22
ATOM     22  C   MET A  11     -20.667  12.504  -0.120  0.00  0.00    +0.241 C 
ATOM     23  N   LEU A  12     -21.850  12.067  -0.517  0.00  0.00    -0.298 N 
ATOM     24  H   LEU A  12     -22.626  11.992   0.171  0.00  0.00    +0.150 HD
ATOM     25  O   MET A  11     -19.625  12.388  -0.775  0.00  0.00    -0.273 OA
BRANCH  23  26
ATOM     26  CA  LEU A  12     -22.075  11.698  -1.874  0.00  0.00    +0.137 C 
BRANCH  26  27
ATOM     27  C   LEU A  12     -22.148  12.991  -2.699  0.00  0.00    +0.227 C 
ATOM     28  O   LEU A  12     -22.899  13.924  -2.371  0.00  0.00    -0.286 OA
ENDBRANCH  26  27
BRANCH  26  29
ATOM     29  CB  LEU A  12     -23.345  10.880  -2.014  0.00  0.00    +0.028 C 
BRANCH  29  30
ATOM     30  CG  LEU A  12     -23.604  10.516  -3.484  0.00  0.00    +0.002 C 
ATOM     31  CD2 LEU A  12     -25.011   9.984  -3.672  0.00  0.00    +0.000 C 
ATOM     32  CD1 LEU A  12     -22.537   9.541  -4.035  0.00  0.00    +0.000 C 
ENDBRANCH  29  30
ENDBRANCH  26  29
ENDBRANCH  23  26
ENDBRANCH  21  22
BRANCH  21  33
ATOM     33  CB  MET A  11     -20.587  14.722   0.849  0.00  0.00    +0.041 C 
BRANCH  33  34
ATOM     34  CG  MET A  11     -20.215  15.538   2.024  0.00  0.00    +0.060 C 
BRANCH  34  35
ATOM     35  SD  MET A  11     -21.731  16.060   2.763  0.00  0.00    -0.139 S 
ATOM     36  CE  MET A  11     -22.231  17.226   1.522  0.00  0.00    +0.069 C 
ENDBRANCH  34  35
ENDBRANCH  33  34
ENDBRANCH  21  33
ENDBRANCH  19  21
ENDBRANCH  16  17
BRANCH  16  37
ATOM     37  CB  VAL A  10     -18.228  10.603   4.193  0.00  0.00    +0.027 C 
ATOM     38  CG2 VAL A  10     -16.924  10.367   4.980  0.00  0.00    +0.002 C 
ATOM     39  CG1 VAL A  10     -18.153   9.971   2.804  0.00  0.00    +0.002 C 
ENDBRANCH  16  37
ENDBRANCH  13  16
ENDBRANCH  11  12
BRANCH  11  40
ATOM     40  CB  ARG A   9     -19.338  15.247   7.017  0.00  0.00    +0.033 C 
BRANCH  40  41
ATOM     41  CG  ARG A   9     -19.443  16.198   5.830  0.00  0.00    +0.045 C 
BRANCH  41  42
ATOM     42  CD  ARG A   9     -20.494  17.294   6.099  0.00  0.00    +0.174 C 
BRANCH  42  43
ATOM     43  NE  ARG A   9     -19.834  18.583   6.318  0.00  0.00    -0.265 N 
ATOM     44  HE  ARG A   9     -18.826  18.565   6.572  0.00  0.00    +0.259 HD
ATOM     45  CZ  ARG A   9     -20.417  19.777   6.219  0.00  0.00    +0.342 C 
ATOM     46  NH2 ARG A   9     -19.692  20.873   6.437  0.00  0.00    -0.292 N 
ATOM     47 HH21 ARG A   9     -18.684  20.790   6.681  0.00  0.00    +0.255 HD
ATOM     48 HH22 ARG A   9     -20.134  21.812   6.363  0.00  0.00    +0.255 HD
ATOM     49  NH1 ARG A   9     -21.712  19.889   5.914  0.00  0.00    -0.292 N 
ATOM     50 HH11 ARG A   9     -22.150  20.830   5.841  0.00  0.00    +0.255 HD
ATOM     51 HH12 ARG A   9     -22.283  19.036   5.749  0.00  0.00    +0.255 HD
ENDBRANCH  42  43
ENDBRANCH  41  42
ENDBRANCH  40  41
ENDBRANCH  11  40
ENDBRANCH   9  11
ENDBRANCH   6   7
ENDBRANCH   3   6
ENDBRANCH   1   2
BRANCH   1  54
ATOM     52  C   SER A   6     -15.569  16.669  14.309  0.00  0.00    +0.243 C 
ATOM     53  O   SER A   6     -15.619  17.852  14.685  0.00  0.00    -0.273 OA
ATOM     54  N   PHE A   7     -14.856  16.276  13.243  0.00  0.00    -0.297 N 
ATOM     55  H   PHE A   7     -14.833  15.270  12.979  0.00  0.00    +0.150 HD
BRANCH  52  56
ATOM     56  CA  SER A   6     -16.321  15.595  15.099  0.00  0.00    +0.178 C 
BRANCH  56  58
ATOM     57  C   GLY A   5     -17.561  14.349  13.387  0.00  0.00    +0.243 C 
ATOM     58  N   SER A   6     -16.628  14.377  14.335  0.00  0.00    -0.295 N 
ATOM     59  H   SER A   6     -16.097  13.507  14.543  0.00  0.00    +0.150 HD
ATOM     60  O   GLY A   5     -18.160  15.352  13.001  0.00  0.00    -0.273 OA
BRANCH  57  61
ATOM     61  CA  GLY A   5     -17.852  13.002  12.768  0.00  0.00    +0.176 C 
BRANCH  61  63
ATOM     62  C   THR A   4     -19.468  12.238  11.118  0.00  0.00    +0.243 C 
ATOM     63  N   GLY A   5     -18.668  13.189  11.591  0.00  0.00    -0.295 N 
ATOM     64  H   GLY A   5     -18.628  14.102  11.095  0.00  0.00    +0.150 HD
ATOM     65  O   THR A   4     -19.494  11.091  11.559  0.00  0.00    -0.273 OA
BRANCH  62  66
ATOM     66  CA  THR A   4     -20.379  12.646   9.970  0.00  0.00    +0.176 C 
BRANCH  66  68
ATOM     67  C   GLY A   3     -20.982  11.330   7.992  0.00  0.00    +0.243 C 
ATOM     68  N   THR A   4     -20.921  11.453   9.312  0.00  0.00    -0.295 N 
ATOM     69  H   THR A   4     -21.271  10.672   9.903  0.00  0.00    +0.150 HD
ATOM     70  O   GLY A   3     -20.656  12.239   7.198  0.00  0.00    -0.273 OA
BRANCH  67  71
ATOM     71  CA  GLY A   3     -21.540  10.016   7.478  0.00  0.00    +0.176 C 
BRANCH  71  73
ATOM     72  C   LEU A   2     -22.832   9.332   5.525  0.00  0.00    +0.241 C 
ATOM     73  N   GLY A   3     -22.136  10.257   6.175  0.00  0.00    -0.295 N 
ATOM     74  H   GLY A   3     -22.013  11.191   5.734  0.00  0.00    +0.150 HD
ATOM     75  O   LEU A   2     -23.061   8.232   5.996  0.00  0.00    -0.273 OA
BRANCH  72  76
ATOM     76  CA  LEU A   2     -23.310   9.688   4.115  0.00  0.00    +0.149 C 
BRANCH  76  79
ATOM     77  C   THR A   1     -24.448  11.870   4.023  0.00  0.00    +0.241 C 
ATOM     78  O   THR A   1     -25.527  11.387   4.369  0.00  0.00    -0.274 OA
ATOM     79  N   LEU A   2     -23.349  11.140   3.858  0.00  0.00    -0.297 N 
ATOM     80  H   LEU A   2     -22.481  11.612   3.534  0.00  0.00    +0.150 HD
BRANCH  77  81
ATOM     81  CA  THR A   1     -24.338  13.362   3.675  0.00  0.00    +0.172 C 
BRANCH  81  82
ATOM     82  N   THR A   1     -25.305  13.700   2.637  0.00  0.00    -0.236 NA
ATOM     83  H   THR A   1     -26.178  14.202   2.895  0.00  0.00    +0.142 HD
ENDBRANCH  81  82
BRANCH  81  84
ATOM     84  CB  THR A   1     -24.528  14.238   4.909  0.00  0.00    +0.135 C 
ATOM     85  CG2 THR A   1     -23.576  13.824   6.010  0.00  0.00    +0.034 C 
BRANCH  84  86
ATOM     86  OG1 THR A   1     -24.278  15.603   4.546  0.00  0.00    -0.383 OA
ATOM     87  HG1 THR A   1     -24.913  15.876   3.837  0.00  0.00    +0.210 HD
ENDBRANCH  84  86
ENDBRANCH  81  84
ENDBRANCH  77  81
ENDBRANCH  76  79
BRANCH  76  88
ATOM     88  CB  LEU A   2     -22.383   9.000   3.096  0.00  0.00    +0.029 C 
BRANCH  88  89
ATOM     89  CG  LEU A   2     -22.730   9.223   1.615  0.00  0.00    +0.002 C 
ATOM     90  CD2 LEU A   2     -24.017   8.524   1.240  0.00  0.00    +0.000 C 
ATOM     91  CD1 LEU A   2     -21.586   8.766   0.693  0.00  0.00    +0.000 C 
ENDBRANCH  88  89
ENDBRANCH  76  88
ENDBRANCH  72  76
ENDBRANCH  71  73
ENDBRANCH  67  71
ENDBRANCH  66  68
BRANCH  66  92
ATOM     92  CB  THR A   4     -21.488  13.556  10.553  0.00  0.00    +0.137 C 
ATOM     93  CG2 THR A   4     -22.365  14.122   9.459  0.00  0.00    +0.034 C 
BRANCH  92  94
ATOM     94  OG1 THR A   4     -22.297  12.788  11.452  0.00  0.00    -0.382 OA
ATOM     95  HG1 THR A   4     -23.008  13.365  11.828  0.00  0.00    +0.210 HD
ENDBRANCH  92  94
ENDBRANCH  66  92
ENDBRANCH  62  66
ENDBRANCH  61  63
ENDBRANCH  57  61
ENDBRANCH  56  58
BRANCH  56  96
ATOM     96  CB  SER A   6     -15.504  15.233  16.338  0.00  0.00    +0.166 C 
BRANCH  96  97
ATOM     97  OG  SER A   6     -14.330  14.550  15.931  0.00  0.00    -0.380 OA
ATOM     98  H   SER A   6     -14.581  13.726  15.443  0.00  0.00    +0.211 HD
ENDBRANCH  96  97
ENDBRANCH  56  96
ENDBRANCH  52  56
ENDBRANCH   1  54
BRANCH   1  99
ATOM     99  CB  PHE A   7     -12.605  17.290  12.791  0.00  0.00    +0.055 C 
BRANCH  99 100
ATOM    100  CG  PHE A   7     -11.893  15.981  12.586  0.00  0.00    -0.020 A 
ATOM    101  CD2 PHE A   7     -11.662  15.130  13.663  0.00  0.00    -0.004 A 
ATOM    102  CE2 PHE A   7     -10.986  13.911  13.492  0.00  0.00    -0.000 A 
ATOM    103  CZ  PHE A   7     -10.533  13.543  12.238  0.00  0.00    -0.000 A 
ATOM    104  CE1 PHE A   7     -10.752  14.384  11.152  0.00  0.00    -0.000 A 
ATOM    105  CD1 PHE A   7     -11.421  15.606  11.332  0.00  0.00    -0.004 A 
ENDBRANCH  99 100
ENDBRANCH   1  99
TORSDOF 44
REMARK  Name = ../refined-set-2016/3agl/3agl_pocket.pdb
REMARK  332 active torsions:
REMARK  status: ('A' for Active; 'I' for Inactive)
REMARK    1  A    between atoms: _1  and  _3
REMARK    2  A    between atoms: _3  and  _4
REMARK    3  A    between atoms: _3  and  _6
REMARK    4  A    between atoms: _6  and  _7
REMARK    5  A    between atoms: _10  and  _12
REMARK    6  A    between atoms: _12  and  _13
REMARK    7  A    between atoms: _12  and  _15
REMARK    8  A    between atoms: _15  and  _16
REMARK    9  A    between atoms: _19  and  _21
REMARK   10  A    between atoms: _21  and  _22
REMARK   11  A    between atoms: _24  and  _26
REMARK   12  A    between atoms: _26  and  _27
REMARK   13  A    between atoms: _26  and  _29
REMARK   14  A    between atoms: _29  and  _30
REMARK   15  A    between atoms: _33  and  _35
REMARK   16  A    between atoms: _35  and  _36
REMARK   17  A    between atoms: _38  and  _40
REMARK   18  A    between atoms: _40  and  _41
REMARK   19  A    between atoms: _40  and  _43
REMARK   20  A    between atoms: _43  and  _44
REMARK   21  A    between atoms: _46  and  _48
REMARK   22  A    between atoms: _48  and  _49
REMARK   23  A    between atoms: _48  and  _51
REMARK   24  A    between atoms: _51  and  _52
REMARK   25  A    between atoms: _58  and  _60
REMARK   26  A    between atoms: _60  and  _61
REMARK   27  A    between atoms: _63  and  _65
REMARK   28  A    between atoms: _65  and  _66
REMARK   29  A    between atoms: _65  and  _68
REMARK   30  A    between atoms: _68  and  _69
REMARK   31  A    between atoms: _69  and  _70
REMARK   32  A    between atoms: _70  and  _71
REMARK   33  A    between atoms: _80  and  _82
REMARK   34  A    between atoms: _82  and  _83
REMARK   35  A    between atoms: _82  and  _85
REMARK   36  A    between atoms: _88  and  _90
REMARK   37  A    between atoms: _90  and  _91
REMARK   38  A    between atoms: _90  and  _93
REMARK   39  A    between atoms: _93  and  _94
REMARK   40  A    between atoms: _94  and  _95
REMARK   41  A    between atoms: _97  and  _99
REMARK   42  A    between atoms: _99  and  _100
REMARK   43  A    between atoms: _99  and  _102
REMARK   44  A    between atoms: _102  and  _103
REMARK   45  A    between atoms: _106  and  _108
REMARK   46  A    between atoms: _108  and  _109
REMARK   47  A    between atoms: _108  and  _111
REMARK   48  A    between atoms: _111  and  _112
REMARK   49  A    between atoms: _117  and  _118
REMARK   50  A    between atoms: _120  and  _122
REMARK   51  A    between atoms: _122  and  _123
REMARK   52  A    between atoms: _126  and  _128
REMARK   53  A    between atoms: _128  and  _129
REMARK   54  A    between atoms: _128  and  _131
REMARK   55  A    between atoms: _131  and  _132
REMARK   56  A    between atoms: _132  and  _133
REMARK   57  A    between atoms: _135  and  _137
REMARK   58  A    between atoms: _137  and  _138
REMARK   59  A    between atoms: _137  and  _140
REMARK   60  A    between atoms: _140  and  _141
REMARK   61  A    between atoms: _141  and  _142
REMARK   62  A    between atoms: _142  and  _143
REMARK   63  A    between atoms: _143  and  _144
REMARK   64  A    between atoms: _148  and  _150
REMARK   65  A    between atoms: _150  and  _151
REMARK   66  A    between atoms: _150  and  _153
REMARK   67  A    between atoms: _153  and  _154
REMARK   68  A    between atoms: _157  and  _159
REMARK   69  A    between atoms: _159  and  _160
REMARK   70  A    between atoms: _159  and  _162
REMARK   71  A    between atoms: _162  and  _163
REMARK   72  A    between atoms: _166  and  _168
REMARK   73  A    between atoms: _168  and  _169
REMARK   74  A    between atoms: _168  and  _171
REMARK   75  A    between atoms: _171  and  _172
REMARK   76  A    between atoms: _175  and  _177
REMARK   77  A    between atoms: _177  and  _178
REMARK   78  A    between atoms: _177  and  _180
REMARK   79  A    between atoms: _180  and  _181
REMARK   80  A    between atoms: _181  and  _182
REMARK   81  A    between atoms: _182  and  _183
REMARK   82  A    between atoms: _183  and  _184
REMARK   83  A    between atoms: _188  and  _190
REMARK   84  A    between atoms: _190  and  _191
REMARK   85  A    between atoms: _190  and  _193
REMARK   86  A    between atoms: _196  and  _198
REMARK   87  A    between atoms: _198  and  _199
REMARK   88  A    between atoms: _198  and  _201
REMARK   89  A    between atoms: _201  and  _202
REMARK   90  A    between atoms: _205  and  _207
REMARK   91  A    between atoms: _207  and  _208
REMARK   92  A    between atoms: _207  and  _210
REMARK   93  A    between atoms: _210  and  _211
REMARK   94  A    between atoms: _211  and  _212
REMARK   95  A    between atoms: _217  and  _219
REMARK   96  A    between atoms: _219  and  _220
REMARK   97  A    between atoms: _219  and  _222
REMARK   98  A    between atoms: _222  and  _223
REMARK   99  A    between atoms: _228  and  _230
REMARK  100  A    between atoms: _230  and  _231
REMARK  101  A    between atoms: _230  and  _233
REMARK  102  A    between atoms: _233  and  _234
REMARK  103  A    between atoms: _237  and  _239
REMARK  104  A    between atoms: _239  and  _240
REMARK  105  A    between atoms: _239  and  _242
REMARK  106  A    between atoms: _242  and  _243
REMARK  107  A    between atoms: _243  and  _244
REMARK  108  A    between atoms: _247  and  _249
REMARK  109  A    between atoms: _249  and  _250
REMARK  110  A    between atoms: _249  and  _252
REMARK  111  A    between atoms: _252  and  _253
REMARK  112  A    between atoms: _256  and  _258
REMARK  113  A    between atoms: _258  and  _259
REMARK  114  A    between atoms: _258  and  _261
REMARK  115  A    between atoms: _264  and  _266
REMARK  116  A    between atoms: _266  and  _267
REMARK  117  A    between atoms: _266  and  _269
REMARK  118  A    between atoms: _269  and  _270
REMARK  119  A    between atoms: _270  and  _271
REMARK  120  A    between atoms: _271  and  _272
REMARK  121  A    between atoms: _272  and  _273
REMARK  122  A    between atoms: _277  and  _279
REMARK  123  A    between atoms: _279  and  _280
REMARK  124  A    between atoms: _279  and  _282
REMARK  125  A    between atoms: _282  and  _283
REMARK  126  A    between atoms: _286  and  _288
REMARK  127  A    between atoms: _288  and  _289
REMARK  128  A    between atoms: _288  and  _291
REMARK  129  A    between atoms: _291  and  _292
REMARK  130  A    between atoms: _292  and  _293
REMARK  131  A    between atoms: _296  and  _298
REMARK  132  A    between atoms: _298  and  _299
REMARK  133  A    between atoms: _298  and  _301
REMARK  134  A    between atoms: _301  and  _302
REMARK  135  A    between atoms: _302  and  _303
REMARK  136  A    between atoms: _305  and  _307
REMARK  137  A    between atoms: _307  and  _308
REMARK  138  A    between atoms: _307  and  _310
REMARK  139  A    between atoms: _313  and  _315
REMARK  140  A    between atoms: _315  and  _316
REMARK  141  A    between atoms: _315  and  _318
REMARK  142  A    between atoms: _318  and  _319
REMARK  143  A    between atoms: _319  and  _320
REMARK  144  A    between atoms: _322  and  _324
REMARK  145  A    between atoms: _324  and  _325
REMARK  146  A    between atoms: _324  and  _327
REMARK  147  A    between atoms: _327  and  _328
REMARK  148  A    between atoms: _328  and  _329
REMARK  149  A    between atoms: _332  and  _334
REMARK  150  A    between atoms: _334  and  _335
REMARK  151  A    between atoms: _334  and  _337
REMARK  152  A    between atoms: _337  and  _338
REMARK  153  A    between atoms: _343  and  _344
REMARK  154  A    between atoms: _346  and  _348
REMARK  155  A    between atoms: _348  and  _349
REMARK  156  A    between atoms: _348  and  _351
REMARK  157  A    between atoms: _355  and  _356
REMARK  158  A    between atoms: _361  and  _363
REMARK  159  A    between atoms: _363  and  _364
REMARK  160  A    between atoms: _366  and  _368
REMARK  161  A    between atoms: _368  and  _369
REMARK  162  A    between atoms: _371  and  _373
REMARK  163  A    between atoms: _373  and  _374
REMARK  164  A    between atoms: _373  and  _376
REMARK  165  A    between atoms: _376  and  _377
REMARK  166  A    between atoms: _377  and  _378
REMARK  167  A    between atoms: _381  and  _383
REMARK  168  A    between atoms: _383  and  _384
REMARK  169  A    between atoms: _383  and  _386
REMARK  170  A    between atoms: _386  and  _387
REMARK  171  A    between atoms: _387  and  _388
REMARK  172  A    between atoms: _390  and  _392
REMARK  173  A    between atoms: _392  and  _393
REMARK  174  A    between atoms: _392  and  _395
REMARK  175  A    between atoms: _395  and  _396
REMARK  176  A    between atoms: _402  and  _404
REMARK  177  A    between atoms: _404  and  _405
REMARK  178  A    between atoms: _404  and  _407
REMARK  179  A    between atoms: _407  and  _408
REMARK  180  A    between atoms: _410  and  _412
REMARK  181  A    between atoms: _412  and  _413
REMARK  182  A    between atoms: _412  and  _415
REMARK  183  A    between atoms: _415  and  _416
REMARK  184  A    between atoms: _419  and  _421
REMARK  185  A    between atoms: _421  and  _422
REMARK  186  A    between atoms: _421  and  _424
REMARK  187  A    between atoms: _424  and  _425
REMARK  188  A    between atoms: _425  and  _426
REMARK  189  A    between atoms: _426  and  _427
REMARK  190  A    between atoms: _436  and  _438
REMARK  191  A    between atoms: _438  and  _439
REMARK  192  A    between atoms: _438  and  _441
REMARK  193  A    between atoms: _441  and  _442
REMARK  194  A    between atoms: _447  and  _448
REMARK  195  A    between atoms: _450  and  _452
REMARK  196  A    between atoms: _452  and  _453
REMARK  197  A    between atoms: _452  and  _455
REMARK  198  A    between atoms: _455  and  _456
REMARK  199  A    between atoms: _459  and  _461
REMARK  200  A    between atoms: _461  and  _462
REMARK  201  A    between atoms: _461  and  _464
REMARK  202  A    between atoms: _464  and  _465
REMARK  203  A    between atoms: _468  and  _470
REMARK  204  A    between atoms: _470  and  _471
REMARK  205  A    between atoms: _470  and  _473
REMARK  206  A    between atoms: _473  and  _474
REMARK  207  A    between atoms: _474  and  _475
REMARK  208  A    between atoms: _475  and  _476
REMARK  209  A    between atoms: _476  and  _477
REMARK  210  A    between atoms: _482  and  _483
REMARK  211  A    between atoms: _488  and  _490
REMARK  212  A    between atoms: _490  and  _491
REMARK  213  A    between atoms: _490  and  _493
REMARK  214  A    between atoms: _493  and  _494
REMARK  215  A    between atoms: _494  and  _495
REMARK  216  A    between atoms: _498  and  _500
REMARK  217  A    between atoms: _500  and  _501
REMARK  218  A    between atoms: _500  and  _503
REMARK  219  A    between atoms: _503  and  _504
REMARK  220  A    between atoms: _509  and  _511
REMARK  221  A    between atoms: _511  and  _512
REMARK  222  A    between atoms: _511  and  _514
REMARK  223  A    between atoms: _514  and  _515
REMARK  224  A    between atoms: _518  and  _520
REMARK  225  A    between atoms: _520  and  _521
REMARK  226  A    between atoms: _520  and  _523
REMARK  227  A    between atoms: _523  and  _524
REMARK  228  A    between atoms: _527  and  _529
REMARK  229  A    between atoms: _529  and  _530
REMARK  230  A    between atoms: _529  and  _532
REMARK  231  A    between atoms: _532  and  _533
REMARK  232  A    between atoms: _536  and  _538
REMARK  233  A    between atoms: _538  and  _539
REMARK  234  A    between atoms: _538  and  _541
REMARK  235  A    between atoms: _541  and  _542
REMARK  236  A    between atoms: _542  and  _543
REMARK  237  A    between atoms: _548  and  _550
REMARK  238  A    between atoms: _550  and  _551
REMARK  239  A    between atoms: _550  and  _553
REMARK  240  A    between atoms: _556  and  _558
REMARK  241  A    between atoms: _558  and  _559
REMARK  242  A    between atoms: _558  and  _561
REMARK  243  A    between atoms: _561  and  _562
REMARK  244  A    between atoms: _565  and  _567
REMARK  245  A    between atoms: _567  and  _568
REMARK  246  A    between atoms: _567  and  _570
REMARK  247  A    between atoms: _570  and  _571
REMARK  248  A    between atoms: _574  and  _576
REMARK  249  A    between atoms: _576  and  _577
REMARK  250  A    between atoms: _576  and  _579
REMARK  251  A    between atoms: _579  and  _580
REMARK  252  A    between atoms: _586  and  _588
REMARK  253  A    between atoms: _588  and  _589
REMARK  254  A    between atoms: _591  and  _593
REMARK  255  A    between atoms: _593  and  _594
REMARK  256  A    between atoms: _593  and  _596
REMARK  257  A    between atoms: _596  and  _597
REMARK  258  A    between atoms: _603  and  _605
REMARK  259  A    between atoms: _605  and  _606
REMARK  260  A    between atoms: _605  and  _608
REMARK  261  A    between atoms: _610  and  _612
REMARK  262  A    between atoms: _612  and  _613
REMARK  263  A    between atoms: _615  and  _617
REMARK  264  A    between atoms: _617  and  _618
REMARK  265  A    between atoms: _617  and  _620
REMARK  266  A    between atoms: _620  and  _621
REMARK  267  A    between atoms: _625  and  _626
REMARK  268  A    between atoms: _631  and  _633
REMARK  269  A    between atoms: _633  and  _634
REMARK  270  A    between atoms: _633  and  _636
REMARK  271  A    between atoms: _636  and  _637
REMARK  272  A    between atoms: _637  and  _638
REMARK  273  A    between atoms: _641  and  _643
REMARK  274  A    between atoms: _643  and  _644
REMARK  275  A    between atoms: _643  and  _646
REMARK  276  A    between atoms: _646  and  _647
REMARK  277  A    between atoms: _652  and  _653
REMARK  278  A    between atoms: _655  and  _657
REMARK  279  A    between atoms: _657  and  _658
REMARK  280  A    between atoms: _657  and  _660
REMARK  281  A    between atoms: _663  and  _665
REMARK  282  A    between atoms: _665  and  _666
REMARK  283  A    between atoms: _665  and  _668
REMARK  284  A    between atoms: _668  and  _669
REMARK  285  A    between atoms: _672  and  _674
REMARK  286  A    between atoms: _674  and  _675
REMARK  287  A    between atoms: _674  and  _677
REMARK  288  A    between atoms: _677  and  _678
REMARK  289  A    between atoms: _678  and  _679
REMARK  290  A    between atoms: _682  and  _684
REMARK  291  A    between atoms: _684  and  _685
REMARK  292  A    between atoms: _684  and  _687
REMARK  293  A    between atoms: _687  and  _688
REMARK  294  A    between atoms: _688  and  _689
REMARK  295  A    between atoms: _691  and  _693
REMARK  296  A    between atoms: _693  and  _694
REMARK  297  A    between atoms: _696  and  _698
REMARK  298  A    between atoms: _698  and  _699
REMARK  299  A    between atoms: _698  and  _701
REMARK  300  A    between atoms: _701  and  _702
REMARK  301  A    between atoms: _707  and  _708
REMARK  302  A    between atoms: _711  and  _712
REMARK  303  A    between atoms: _718  and  _719
REMARK  304  A    between atoms: _724  and  _726
REMARK  305  A    between atoms: _726  and  _727
REMARK  306  A    between atoms: _726  and  _729
REMARK  307  A    between atoms: _729  and  _730
REMARK  308  A    between atoms: _736  and  _738
REMARK  309  A    between atoms: _738  and  _739
REMARK  310  A    between atoms: _738  and  _741
REMARK  311  A    between atoms: _741  and  _742
REMARK  312  A    between atoms: _748  and  _750
REMARK  313  A    between atoms: _750  and  _751
REMARK  314  A    between atoms: _750  and  _753
REMARK  315  A    between atoms: _753  and  _754
REMARK  316  A    between atoms: _757  and  _759
REMARK  317  A    between atoms: _759  and  _760
REMARK  318  A    between atoms: _759  and  _762
REMARK  319  A    between atoms: _762  and  _763
REMARK  320  A    between atoms: _768  and  _770
REMARK  321  A    between atoms: _770  and  _771
REMARK  322  A    between atoms: _770  and  _773
REMARK  323  A    between atoms: _773  and  _774
REMARK  324  A    between atoms: _780  and  _782
REMARK  325  A    between atoms: _782  and  _783
REMARK  326  A    between atoms: _782  and  _785
REMARK  327  A    between atoms: _785  and  _786
REMARK  328  A    between atoms: _789  and  _791
REMARK  329  A    between atoms: _791  and  _792
REMARK  330  A    between atoms: _791  and  _794
REMARK  331  A    between atoms: _794  and  _795
REMARK  332  A    between atoms: _800  and  _801
REMARK                            x       y       z     vdW  Elec       q    Type
REMARK                         _______ _______ _______ _____ _____    ______ ____
ROOT
ATOM      1  CA  LYS A   4     -14.526  13.077   2.726  0.00  0.00    +0.149 C 
ENDROOT
BRANCH   1   4
ATOM      2  C   MET A   3     -15.941  13.127   0.760  0.00  0.00    +0.241 C 
ATOM      3  O   MET A   3     -16.914  13.554   1.391  0.00  0.00    -0.273 OA
ATOM      4  N   LYS A   4     -14.783  12.813   1.322  0.00  0.00    -0.297 N 
ATOM      5  H   LYS A   4     -14.042  12.367   0.744  0.00  0.00    +0.150 HD
BRANCH   2   6
ATOM      6  CA  MET A   3     -16.021  12.906  -0.733  0.00  0.00    +0.149 C 
BRANCH   6   8
ATOM      7  C   ALA A   2     -16.660  10.683  -1.447  0.00  0.00    +0.241 C 
ATOM      8  N   MET A   3     -17.027  11.878  -1.010  0.00  0.00    -0.297 N 
ATOM      9  H   MET A   3     -18.035  12.088  -0.863  0.00  0.00    +0.150 HD
ATOM     10  O   ALA A   2     -15.474  10.339  -1.535  0.00  0.00    -0.273 OA
BRANCH   7  11
ATOM     11  CA  ALA A   2     -17.776   9.742  -1.862  0.00  0.00    +0.149 C 
ATOM     12  CB  ALA A   2     -17.740   8.446  -1.042  0.00  0.00    +0.031 C 
BRANCH  11  14
ATOM     13  C   TYR A   1     -18.328  10.116  -4.173  0.00  0.00    +0.239 C 
ATOM     14  N   ALA A   2     -17.586   9.474  -3.274  0.00  0.00    -0.297 N 
ATOM     15  H   ALA A   2     -16.873   8.783  -3.583  0.00  0.00    +0.150 HD
ATOM     16  O   TYR A   1     -19.304  10.799  -3.862  0.00  0.00    -0.274 OA
BRANCH  13  17
ATOM     17  CA  TYR A   1     -17.899   9.983  -5.639  0.00  0.00    +0.149 C 
BRANCH  17  18
ATOM     18  N   TYR A   1     -18.990  10.288  -6.554  0.00  0.00    -0.238 NA
ATOM     19  H   TYR A   1     -19.596  11.107  -6.346  0.00  0.00    +0.142 HD
ENDBRANCH  17  18
BRANCH  17  20
ATOM     20  CB  TYR A   1     -16.733  10.938  -5.864  0.00  0.00    +0.053 C 
BRANCH  20  21
ATOM     21  CG  TYR A   1     -16.070  10.850  -7.216  0.00  0.00    -0.020 A 
ATOM     22  CD2 TYR A   1     -15.241   9.774  -7.550  0.00  0.00    -0.001 A 
ATOM     23  CE2 TYR A   1     -14.626   9.695  -8.803  0.00  0.00    +0.036 A 
ATOM     24  CZ  TYR A   1     -14.841  10.709  -9.724  0.00  0.00    +0.134 A 
ATOM     25  CE1 TYR A   1     -15.656  11.783  -9.409  0.00  0.00    +0.036 A 
ATOM     26  CD1 TYR A   1     -16.261  11.847  -8.154  0.00  0.00    -0.001 A 
BRANCH  24  27
ATOM     27  OH  TYR A   1     -14.247  10.684 -10.962  0.00  0.00    -0.506 OA
ATOM     28  HH  TYR A   1     -13.698   9.865 -11.047  0.00  0.00    +0.292 HD
ENDBRANCH  24  27
ENDBRANCH  20  21
ENDBRANCH  17  20
ENDBRANCH  13  17
ENDBRANCH  11  14
ENDBRANCH   7  11
ENDBRANCH   6   8
BRANCH   6  29
ATOM     29  CB  MET A   3     -16.354  14.203  -1.495  0.00  0.00    +0.041 C 
BRANCH  29  30
ATOM     30  CG  MET A   3     -15.607  15.472  -1.047  0.00  0.00    +0.060 C 
BRANCH  30  31
ATOM     31  SD  MET A   3     -16.247  16.972  -1.871  0.00  0.00    -0.139 S 
ATOM     32  CE  MET A   3     -15.379  16.840  -3.406  0.00  0.00    +0.069 C 
ENDBRANCH  30  31
ENDBRANCH  29  30
ENDBRANCH   6  29
ENDBRANCH   2   6
ENDBRANCH   1   4
BRANCH   1  33
ATOM     33  C   LYS A   4     -14.063  14.525   2.811  0.00  0.00    +0.241 C 
ATOM     34  N   ILE A   5     -14.768  15.318   3.608  0.00  0.00    -0.297 N 
ATOM     35  H   ILE A   5     -15.559  14.911   4.146  0.00  0.00    +0.150 HD
ATOM     36  O   LYS A   4     -13.082  14.902   2.138  0.00  0.00    -0.273 OA
BRANCH  34  37
ATOM     37  CA  ILE A   5     -14.474  16.745   3.758  0.00  0.00    +0.149 C 
BRANCH  37  38
ATOM     38  C   ILE A   5     -14.062  16.980   5.201  0.00  0.00    +0.241 C 
ATOM     39  O   ILE A   5     -14.835  16.687   6.117  0.00  0.00    -0.273 OA
ATOM     40  N   LEU A   6     -12.853  17.497   5.408  0.00  0.00    -0.297 N 
ATOM     41  H   LEU A   6     -12.242  17.704   4.592  0.00  0.00    +0.150 HD
BRANCH  40  42
ATOM     42  CA  LEU A   6     -12.365  17.781   6.760  0.00  0.00    +0.149 C 
BRANCH  42  43
ATOM     43  C   LEU A   6     -12.169  19.268   6.966  0.00  0.00    +0.241 C 
ATOM     44  N   ASP A   7     -12.717  19.790   8.070  0.00  0.00    -0.298 N 
ATOM     45  H   ASP A   7     -13.279  19.166   8.684  0.00  0.00    +0.150 HD
ATOM     46  O   LEU A   6     -11.528  19.926   6.145  0.00  0.00    -0.273 OA
BRANCH  44  47
ATOM     47  CA  ASP A   7     -12.565  21.204   8.460  0.00  0.00    +0.148 C 
BRANCH  47  48
ATOM     48  C   ASP A   7     -11.176  21.389   9.096  0.00  0.00    +0.227 C 
ATOM     49  O   ASP A   7     -10.905  20.862  10.187  0.00  0.00    -0.286 OA
ENDBRANCH  47  48
BRANCH  47  50
ATOM     50  CB  ASP A   7     -13.696  21.592   9.433  0.00  0.00    +0.142 C 
BRANCH  50  51
ATOM     51  CG  ASP A   7     -13.637  23.050   9.898  0.00  0.00    +0.367 C 
ATOM     52  OD2 ASP A   7     -12.603  23.517  10.414  0.00  0.00    -0.246 OA
ATOM     53  OD1 ASP A   7     -14.660  23.746   9.767  0.00  0.00    -0.246 OA
ENDBRANCH  50  51
ENDBRANCH  47  50
ENDBRANCH  44  47
ENDBRANCH  42  43
BRANCH  42  54
ATOM     54  CB  LEU A   6     -11.044  17.036   7.044  0.00  0.00    +0.029 C 
BRANCH  54  55
ATOM     55  CG  LEU A   6     -10.978  15.534   6.749  0.00  0.00    +0.002 C 
ATOM     56  CD2 LEU A   6     -12.134  14.742   7.435  0.00  0.00    +0.000 C 
ATOM     57  CD1 LEU A   6      -9.627  14.981   7.186  0.00  0.00    +0.000 C 
ENDBRANCH  54  55
ENDBRANCH  42  54
ENDBRANCH  40  42
ENDBRANCH  37  38
BRANCH  37  58
ATOM     58  CB  ILE A   5     -15.712  17.620   3.418  0.00  0.00    +0.027 C 
ATOM     59  CG2 ILE A   5     -15.390  19.136   3.573  0.00  0.00    +0.002 C 
BRANCH  58  60
ATOM     60  CG1 ILE A   5     -16.233  17.320   2.009  0.00  0.00    +0.002 C 
ATOM     61  CD1 ILE A   5     -17.526  18.045   1.688  0.00  0.00    +0.000 C 
ENDBRANCH  58  60
ENDBRANCH  37  58
ENDBRANCH  34  37
ENDBRANCH   1  33
BRANCH   1  62
ATOM     62  CB  LYS A   4     -13.429  12.140   3.269  0.00  0.00    +0.029 C 
BRANCH  62  63
ATOM     63  CG  LYS A   4     -13.110  12.282   4.759  0.00  0.00    +0.000 C 
BRANCH  63  64
ATOM     64  CD  LYS A   4     -12.483  10.953   5.295  0.00  0.00    -0.024 C 
BRANCH  64  65
ATOM     65  CE  LYS A   4     -12.371  10.953   6.822  0.00  0.00    -0.086 C 
BRANCH  65  66
ATOM     66  NZ  LYS A   4     -11.741   9.695   7.366  0.00  0.00    +0.380 N 
ATOM     67  HZ1 LYS A   4     -11.692   9.754   8.403  0.00  0.00    -0.089 HD
ATOM     68  HZ2 LYS A   4     -12.316   8.874   7.091  0.00  0.00    -0.089 HD
ATOM     69  HZ3 LYS A   4     -10.781   9.594   6.978  0.00  0.00    -0.089 HD
ENDBRANCH  65  66
ENDBRANCH  64  65
ENDBRANCH  63  64
ENDBRANCH  62  63
ENDBRANCH   1  62
TORSDOF 31
REMARK  Name = ../refined-set-2016/3agl/3agl_pocket.pdb
REMARK  332 active torsions:
REMARK  status: ('A' for Active; 'I' for Inactive)
REMARK    1  A    between atoms: _1  and  _3
REMARK    2  A    between atoms: _3  and  _4
REMARK    3  A    between atoms: _3  and  _6
REMARK    4  A    between atoms: _6  and  _7
REMARK    5  A    between atoms: _10  and  _12
REMARK    6  A    between atoms: _12  and  _13
REMARK    7  A    between atoms: _12  and  _15
REMARK    8  A    between atoms: _15  and  _16
REMARK    9  A    between atoms: _19  and  _21
REMARK   10  A    between atoms: _21  and  _22
REMARK   11  A    between atoms: _24  and  _26
REMARK   12  A    between atoms: _26  and  _27
REMARK   13  A    between atoms: _26  and  _29
REMARK   14  A    between atoms: _29  and  _30
REMARK   15  A    between atoms: _33  and  _35
REMARK   16  A    between atoms: _35  and  _36
REMARK   17  A    between atoms: _38  and  _40
REMARK   18  A    between atoms: _40  and  _41
REMARK   19  A    between atoms: _40  and  _43
REMARK   20  A    between atoms: _43  and  _44
REMARK   21  A    between atoms: _46  and  _48
REMARK   22  A    between atoms: _48  and  _49
REMARK   23  A    between atoms: _48  and  _51
REMARK   24  A    between atoms: _51  and  _52
REMARK   25  A    between atoms: _58  and  _60
REMARK   26  A    between atoms: _60  and  _61
REMARK   27  A    between atoms: _63  and  _65
REMARK   28  A    between atoms: _65  and  _66
REMARK   29  A    between atoms: _65  and  _68
REMARK   30  A    between atoms: _68  and  _69
REMARK   31  A    between atoms: _69  and  _70
REMARK   32  A    between atoms: _70  and  _71
REMARK   33  A    between atoms: _80  and  _82
REMARK   34  A    between atoms: _82  and  _83
REMARK   35  A    between atoms: _82  and  _85
REMARK   36  A    between atoms: _88  and  _90
REMARK   37  A    between atoms: _90  and  _91
REMARK   38  A    between atoms: _90  and  _93
REMARK   39  A    between atoms: _93  and  _94
REMARK   40  A    between atoms: _94  and  _95
REMARK   41  A    between atoms: _97  and  _99
REMARK   42  A    between atoms: _99  and  _100
REMARK   43  A    between atoms: _99  and  _102
REMARK   44  A    between atoms: _102  and  _103
REMARK   45  A    between atoms: _106  and  _108
REMARK   46  A    between atoms: _108  and  _109
REMARK   47  A    between atoms: _108  and  _111
REMARK   48  A    between atoms: _111  and  _112
REMARK   49  A    between atoms: _117  and  _118
REMARK   50  A    between atoms: _120  and  _122
REMARK   51  A    between atoms: _122  and  _123
REMARK   52  A    between atoms: _126  and  _128
REMARK   53  A    between atoms: _128  and  _129
REMARK   54  A    between atoms: _128  and  _131
REMARK   55  A    between atoms: _131  and  _132
REMARK   56  A    between atoms: _132  and  _133
REMARK   57  A    between atoms: _135  and  _137
REMARK   58  A    between atoms: _137  and  _138
REMARK   59  A    between atoms: _137  and  _140
REMARK   60  A    between atoms: _140  and  _141
REMARK   61  A    between atoms: _141  and  _142
REMARK   62  A    between atoms: _142  and  _143
REMARK   63  A    between atoms: _143  and  _144
REMARK   64  A    between atoms: _148  and  _150
REMARK   65  A    between atoms: _150  and  _151
REMARK   66  A    between atoms: _150  and  _153
REMARK   67  A    between atoms: _153  and  _154
REMARK   68  A    between atoms: _157  and  _159
REMARK   69  A    between atoms: _159  and  _160
REMARK   70  A    between atoms: _159  and  _162
REMARK   71  A    between atoms: _162  and  _163
REMARK   72  A    between atoms: _166  and  _168
REMARK   73  A    between atoms: _168  and  _169
REMARK   74  A    between atoms: _168  and  _171
REMARK   75  A    between atoms: _171  and  _172
REMARK   76  A    between atoms: _175  and  _177
REMARK   77  A    between atoms: _177  and  _178
REMARK   78  A    between atoms: _177  and  _180
REMARK   79  A    between atoms: _180  and  _181
REMARK   80  A    between atoms: _181  and  _182
REMARK   81  A    between atoms: _182  and  _183
REMARK   82  A    between atoms: _183  and  _184
REMARK   83  A    between atoms: _188  and  _190
REMARK   84  A    between atoms: _190  and  _191
REMARK   85  A    between atoms: _190  and  _193
REMARK   86  A    between atoms: _196  and  _198
REMARK   87  A    between atoms: _198  and  _199
REMARK   88  A    between atoms: _198  and  _201
REMARK   89  A    between atoms: _201  and  _202
REMARK   90  A    between atoms: _205  and  _207
REMARK   91  A    between atoms: _207  and  _208
REMARK   92  A    between atoms: _207  and  _210
REMARK   93  A    between atoms: _210  and  _211
REMARK   94  A    between atoms: _211  and  _212
REMARK   95  A    between atoms: _217  and  _219
REMARK   96  A    between atoms: _219  and  _220
REMARK   97  A    between atoms: _219  and  _222
REMARK   98  A    between atoms: _222  and  _223
REMARK   99  A    between atoms: _228  and  _230
REMARK  100  A    between atoms: _230  and  _231
REMARK  101  A    between atoms: _230  and  _233
REMARK  102  A    between atoms: _233  and  _234
REMARK  103  A    between atoms: _237  and  _239
REMARK  104  A    between atoms: _239  and  _240
REMARK  105  A    between atoms: _239  and  _242
REMARK  106  A    between atoms: _242  and  _243
REMARK  107  A    between atoms: _243  and  _244
REMARK  108  A    between atoms: _247  and  _249
REMARK  109  A    between atoms: _249  and  _250
REMARK  110  A    between atoms: _249  and  _252
REMARK  111  A    between atoms: _252  and  _253
REMARK  112  A    between atoms: _256  and  _258
REMARK  113  A    between atoms: _258  and  _259
REMARK  114  A    between atoms: _258  and  _261
REMARK  115  A    between atoms: _264  and  _266
REMARK  116  A    between atoms: _266  and  _267
REMARK  117  A    between atoms: _266  and  _269
REMARK  118  A    between atoms: _269  and  _270
REMARK  119  A    between atoms: _270  and  _271
REMARK  120  A    between atoms: _271  and  _272
REMARK  121  A    between atoms: _272  and  _273
REMARK  122  A    between atoms: _277  and  _279
REMARK  123  A    between atoms: _279  and  _280
REMARK  124  A    between atoms: _279  and  _282
REMARK  125  A    between atoms: _282  and  _283
REMARK  126  A    between atoms: _286  and  _288
REMARK  127  A    between atoms: _288  and  _289
REMARK  128  A    between atoms: _288  and  _291
REMARK  129  A    between atoms: _291  and  _292
REMARK  130  A    between atoms: _292  and  _293
REMARK  131  A    between atoms: _296  and  _298
REMARK  132  A    between atoms: _298  and  _299
REMARK  133  A    between atoms: _298  and  _301
REMARK  134  A    between atoms: _301  and  _302
REMARK  135  A    between atoms: _302  and  _303
REMARK  136  A    between atoms: _305  and  _307
REMARK  137  A    between atoms: _307  and  _308
REMARK  138  A    between atoms: _307  and  _310
REMARK  139  A    between atoms: _313  and  _315
REMARK  140  A    between atoms: _315  and  _316
REMARK  141  A    between atoms: _315  and  _318
REMARK  142  A    between atoms: _318  and  _319
REMARK  143  A    between atoms: _319  and  _320
REMARK  144  A    between atoms: _322  and  _324
REMARK  145  A    between atoms: _324  and  _325
REMARK  146  A    between atoms: _324  and  _327
REMARK  147  A    between atoms: _327  and  _328
REMARK  148  A    between atoms: _328  and  _329
REMARK  149  A    between atoms: _332  and  _334
REMARK  150  A    between atoms: _334  and  _335
REMARK  151  A    between atoms: _334  and  _337
REMARK  152  A    between atoms: _337  and  _338
REMARK  153  A    between atoms: _343  and  _344
REMARK  154  A    between atoms: _346  and  _348
REMARK  155  A    between atoms: _348  and  _349
REMARK  156  A    between atoms: _348  and  _351
REMARK  157  A    between atoms: _355  and  _356
REMARK  158  A    between atoms: _361  and  _363
REMARK  159  A    between atoms: _363  and  _364
REMARK  160  A    between atoms: _366  and  _368
REMARK  161  A    between atoms: _368  and  _369
REMARK  162  A    between atoms: _371  and  _373
REMARK  163  A    between atoms: _373  and  _374
REMARK  164  A    between atoms: _373  and  _376
REMARK  165  A    between atoms: _376  and  _377
REMARK  166  A    between atoms: _377  and  _378
REMARK  167  A    between atoms: _381  and  _383
REMARK  168  A    between atoms: _383  and  _384
REMARK  169  A    between atoms: _383  and  _386
REMARK  170  A    between atoms: _386  and  _387
REMARK  171  A    between atoms: _387  and  _388
REMARK  172  A    between atoms: _390  and  _392
REMARK  173  A    between atoms: _392  and  _393
REMARK  174  A    between atoms: _392  and  _395
REMARK  175  A    between atoms: _395  and  _396
REMARK  176  A    between atoms: _402  and  _404
REMARK  177  A    between atoms: _404  and  _405
REMARK  178  A    between atoms: _404  and  _407
REMARK  179  A    between atoms: _407  and  _408
REMARK  180  A    between atoms: _410  and  _412
REMARK  181  A    between atoms: _412  and  _413
REMARK  182  A    between atoms: _412  and  _415
REMARK  183  A    between atoms: _415  and  _416
REMARK  184  A    between atoms: _419  and  _421
REMARK  185  A    between atoms: _421  and  _422
REMARK  186  A    between atoms: _421  and  _424
REMARK  187  A    between atoms: _424  and  _425
REMARK  188  A    between atoms: _425  and  _426
REMARK  189  A    between atoms: _426  and  _427
REMARK  190  A    between atoms: _436  and  _438
REMARK  191  A    between atoms: _438  and  _439
REMARK  192  A    between atoms: _438  and  _441
REMARK  193  A    between atoms: _441  and  _442
REMARK  194  A    between atoms: _447  and  _448
REMARK  195  A    between atoms: _450  and  _452
REMARK  196  A    between atoms: _452  and  _453
REMARK  197  A    between atoms: _452  and  _455
REMARK  198  A    between atoms: _455  and  _456
REMARK  199  A    between atoms: _459  and  _461
REMARK  200  A    between atoms: _461  and  _462
REMARK  201  A    between atoms: _461  and  _464
REMARK  202  A    between atoms: _464  and  _465
REMARK  203  A    between atoms: _468  and  _470
REMARK  204  A    between atoms: _470  and  _471
REMARK  205  A    between atoms: _470  and  _473
REMARK  206  A    between atoms: _473  and  _474
REMARK  207  A    between atoms: _474  and  _475
REMARK  208  A    between atoms: _475  and  _476
REMARK  209  A    between atoms: _476  and  _477
REMARK  210  A    between atoms: _482  and  _483
REMARK  211  A    between atoms: _488  and  _490
REMARK  212  A    between atoms: _490  and  _491
REMARK  213  A    between atoms: _490  and  _493
REMARK  214  A    between atoms: _493  and  _494
REMARK  215  A    between atoms: _494  and  _495
REMARK  216  A    between atoms: _498  and  _500
REMARK  217  A    between atoms: _500  and  _501
REMARK  218  A    between atoms: _500  and  _503
REMARK  219  A    between atoms: _503  and  _504
REMARK  220  A    between atoms: _509  and  _511
REMARK  221  A    between atoms: _511  and  _512
REMARK  222  A    between atoms: _511  and  _514
REMARK  223  A    between atoms: _514  and  _515
REMARK  224  A    between atoms: _518  and  _520
REMARK  225  A    between atoms: _520  and  _521
REMARK  226  A    between atoms: _520  and  _523
REMARK  227  A    between atoms: _523  and  _524
REMARK  228  A    between atoms: _527  and  _529
REMARK  229  A    between atoms: _529  and  _530
REMARK  230  A    between atoms: _529  and  _532
REMARK  231  A    between atoms: _532  and  _533
REMARK  232  A    between atoms: _536  and  _538
REMARK  233  A    between atoms: _538  and  _539
REMARK  234  A    between atoms: _538  and  _541
REMARK  235  A    between atoms: _541  and  _542
REMARK  236  A    between atoms: _542  and  _543
REMARK  237  A    between atoms: _548  and  _550
REMARK  238  A    between atoms: _550  and  _551
REMARK  239  A    between atoms: _550  and  _553
REMARK  240  A    between atoms: _556  and  _558
REMARK  241  A    between atoms: _558  and  _559
REMARK  242  A    between atoms: _558  and  _561
REMARK  243  A    between atoms: _561  and  _562
REMARK  244  A    between atoms: _565  and  _567
REMARK  245  A    between atoms: _567  and  _568
REMARK  246  A    between atoms: _567  and  _570
REMARK  247  A    between atoms: _570  and  _571
REMARK  248  A    between atoms: _574  and  _576
REMARK  249  A    between atoms: _576  and  _577
REMARK  250  A    between atoms: _576  and  _579
REMARK  251  A    between atoms: _579  and  _580
REMARK  252  A    between atoms: _586  and  _588
REMARK  253  A    between atoms: _588  and  _589
REMARK  254  A    between atoms: _591  and  _593
REMARK  255  A    between atoms: _593  and  _594
REMARK  256  A    between atoms: _593  and  _596
REMARK  257  A    between atoms: _596  and  _597
REMARK  258  A    between atoms: _603  and  _605
REMARK  259  A    between atoms: _605  and  _606
REMARK  260  A    between atoms: _605  and  _608
REMARK  261  A    between atoms: _610  and  _612
REMARK  262  A    between atoms: _612  and  _613
REMARK  263  A    between atoms: _615  and  _617
REMARK  264  A    between atoms: _617  and  _618
REMARK  265  A    between atoms: _617  and  _620
REMARK  266  A    between atoms: _620  and  _621
REMARK  267  A    between atoms: _625  and  _626
REMARK  268  A    between atoms: _631  and  _633
REMARK  269  A    between atoms: _633  and  _634
REMARK  270  A    between atoms: _633  and  _636
REMARK  271  A    between atoms: _636  and  _637
REMARK  272  A    between atoms: _637  and  _638
REMARK  273  A    between atoms: _641  and  _643
REMARK  274  A    between atoms: _643  and  _644
REMARK  275  A    between atoms: _643  and  _646
REMARK  276  A    between atoms: _646  and  _647
REMARK  277  A    between atoms: _652  and  _653
REMARK  278  A    between atoms: _655  and  _657
REMARK  279  A    between atoms: _657  and  _658
REMARK  280  A    between atoms: _657  and  _660
REMARK  281  A    between atoms: _663  and  _665
REMARK  282  A    between atoms: _665  and  _666
REMARK  283  A    between atoms: _665  and  _668
REMARK  284  A    between atoms: _668  and  _669
REMARK  285  A    between atoms: _672  and  _674
REMARK  286  A    between atoms: _674  and  _675
REMARK  287  A    between atoms: _674  and  _677
REMARK  288  A    between atoms: _677  and  _678
REMARK  289  A    between atoms: _678  and  _679
REMARK  290  A    between atoms: _682  and  _684
REMARK  291  A    between atoms: _684  and  _685
REMARK  292  A    between atoms: _684  and  _687
REMARK  293  A    between atoms: _687  and  _688
REMARK  294  A    between atoms: _688  and  _689
REMARK  295  A    between atoms: _691  and  _693
REMARK  296  A    between atoms: _693  and  _694
REMARK  297  A    between atoms: _696  and  _698
REMARK  298  A    between atoms: _698  and  _699
REMARK  299  A    between atoms: _698  and  _701
REMARK  300  A    between atoms: _701  and  _702
REMARK  301  A    between atoms: _707  and  _708
REMARK  302  A    between atoms: _711  and  _712
REMARK  303  A    between atoms: _718  and  _719
REMARK  304  A    between atoms: _724  and  _726
REMARK  305  A    between atoms: _726  and  _727
REMARK  306  A    between atoms: _726  and  _729
REMARK  307  A    between atoms: _729  and  _730
REMARK  308  A    between atoms: _736  and  _738
REMARK  309  A    between atoms: _738  and  _739
REMARK  310  A    between atoms: _738  and  _741
REMARK  311  A    between atoms: _741  and  _742
REMARK  312  A    between atoms: _748  and  _750
REMARK  313  A    between atoms: _750  and  _751
REMARK  314  A    between atoms: _750  and  _753
REMARK  315  A    between atoms: _753  and  _754
REMARK  316  A    between atoms: _757  and  _759
REMARK  317  A    between atoms: _759  and  _760
REMARK  318  A    between atoms: _759  and  _762
REMARK  319  A    between atoms: _762  and  _763
REMARK  320  A    between atoms: _768  and  _770
REMARK  321  A    between atoms: _770  and  _771
REMARK  322  A    between atoms: _770  and  _773
REMARK  323  A    between atoms: _773  and  _774
REMARK  324  A    between atoms: _780  and  _782
REMARK  325  A    between atoms: _782  and  _783
REMARK  326  A    between atoms: _782  and  _785
REMARK  327  A    between atoms: _785  and  _786
REMARK  328  A    between atoms: _789  and  _791
REMARK  329  A    between atoms: _791  and  _792
REMARK  330  A    between atoms: _791  and  _794
REMARK  331  A    between atoms: _794  and  _795
REMARK  332  A    between atoms: _800  and  _801
REMARK                            x       y       z     vdW  Elec       q    Type
REMARK                         _______ _______ _______ _____ _____    ______ ____
ROOT
ATOM      1  CA  LYS A   1     -11.379  21.543  13.696  0.00  0.00    +0.145 C 
ENDROOT
BRANCH   1   2
ATOM      2  C   LYS A   1     -10.308  20.458  13.817  0.00  0.00    +0.238 C 
ATOM      3  O   LYS A   1     -10.063  19.957  14.924  0.00  0.00    -0.274 OA
ATOM      4  N   VAL A   2      -9.667  20.113  12.695  0.00  0.00    -0.298 N 
ATOM      5  H   VAL A   2      -9.958  20.538  11.792  0.00  0.00    +0.150 HD
BRANCH   4   6
ATOM      6  CA  VAL A   2      -8.558  19.144  12.710  0.00  0.00    +0.137 C 
BRANCH   6   7
ATOM      7  CB  VAL A   2      -7.967  18.886  11.302  0.00  0.00    +0.026 C 
ATOM      8  CG2 VAL A   2      -6.694  18.068  11.411  0.00  0.00    +0.002 C 
ATOM      9  CG1 VAL A   2      -8.968  18.132  10.413  0.00  0.00    +0.002 C 
ENDBRANCH   6   7
BRANCH   6  10
ATOM     10  C   VAL A   2      -7.452  19.596  13.687  0.00  0.00    +0.227 C 
ATOM     11  O   VAL A   2      -7.028  18.824  14.566  0.00  0.00    -0.286 OA
ENDBRANCH   6  10
ENDBRANCH   4   6
ENDBRANCH   1   2
BRANCH   1  12
ATOM     12  N   LYS A   1     -10.986  22.601  12.765  0.00  0.00    -0.238 NA
ATOM     13  H   LYS A   1     -11.523  22.738  11.885  0.00  0.00    +0.142 HD
ENDBRANCH   1  12
BRANCH   1  14
ATOM     14  CB  LYS A   1     -12.744  20.950  13.361  0.00  0.00    +0.026 C 
BRANCH  14  15
ATOM     15  CG  LYS A   1     -13.903  21.901  13.636  0.00  0.00    -0.000 C 
BRANCH  15  16
ATOM     16  CD  LYS A   1     -15.236  21.322  13.178  0.00  0.00    -0.024 C 
BRANCH  16  17
ATOM     17  CE  LYS A   1     -16.384  22.019  13.898  0.00  0.00    -0.086 C 
BRANCH  17  18
ATOM     18  NZ  LYS A   1     -17.478  22.461  12.973  0.00  0.00    +0.380 N 
ATOM     19  HZ1 LYS A   1     -18.228  22.927  13.523  0.00  0.00    -0.089 HD
ATOM     20  HZ2 LYS A   1     -17.871  21.633  12.482  0.00  0.00    -0.089 HD
ATOM     21  HZ3 LYS A   1     -17.092  23.129  12.275  0.00  0.00    -0.089 HD
ENDBRANCH  17  18
ENDBRANCH  16  17
ENDBRANCH  15  16
ENDBRANCH  14  15
ENDBRANCH   1  14
TORSDOF 10
REMARK  Name = ../refined-set-2016/3agl/3agl_pocket.pdb
REMARK  332 active torsions:
REMARK  status: ('A' for Active; 'I' for Inactive)
REMARK    1  A    between atoms: _1  and  _3
REMARK    2  A    between atoms: _3  and  _4
REMARK    3  A    between atoms: _3  and  _6
REMARK    4  A    between atoms: _6  and  _7
REMARK    5  A    between atoms: _10  and  _12
REMARK    6  A    between atoms: _12  and  _13
REMARK    7  A    between atoms: _12  and  _15
REMARK    8  A    between atoms: _15  and  _16
REMARK    9  A    between atoms: _19  and  _21
REMARK   10  A    between atoms: _21  and  _22
REMARK   11  A    between atoms: _24  and  _26
REMARK   12  A    between atoms: _26  and  _27
REMARK   13  A    between atoms: _26  and  _29
REMARK   14  A    between atoms: _29  and  _30
REMARK   15  A    between atoms: _33  and  _35
REMARK   16  A    between atoms: _35  and  _36
REMARK   17  A    between atoms: _38  and  _40
REMARK   18  A    between atoms: _40  and  _41
REMARK   19  A    between atoms: _40  and  _43
REMARK   20  A    between atoms: _43  and  _44
REMARK   21  A    between atoms: _46  and  _48
REMARK   22  A    between atoms: _48  and  _49
REMARK   23  A    between atoms: _48  and  _51
REMARK   24  A    between atoms: _51  and  _52
REMARK   25  A    between atoms: _58  and  _60
REMARK   26  A    between atoms: _60  and  _61
REMARK   27  A    between atoms: _63  and  _65
REMARK   28  A    between atoms: _65  and  _66
REMARK   29  A    between atoms: _65  and  _68
REMARK   30  A    between atoms: _68  and  _69
REMARK   31  A    between atoms: _69  and  _70
REMARK   32  A    between atoms: _70  and  _71
REMARK   33  A    between atoms: _80  and  _82
REMARK   34  A    between atoms: _82  and  _83
REMARK   35  A    between atoms: _82  and  _85
REMARK   36  A    between atoms: _88  and  _90
REMARK   37  A    between atoms: _90  and  _91
REMARK   38  A    between atoms: _90  and  _93
REMARK   39  A    between atoms: _93  and  _94
REMARK   40  A    between atoms: _94  and  _95
REMARK   41  A    between atoms: _97  and  _99
REMARK   42  A    between atoms: _99  and  _100
REMARK   43  A    between atoms: _99  and  _102
REMARK   44  A    between atoms: _102  and  _103
REMARK   45  A    between atoms: _106  and  _108
REMARK   46  A    between atoms: _108  and  _109
REMARK   47  A    between atoms: _108  and  _111
REMARK   48  A    between atoms: _111  and  _112
REMARK   49  A    between atoms: _117  and  _118
REMARK   50  A    between atoms: _120  and  _122
REMARK   51  A    between atoms: _122  and  _123
REMARK   52  A    between atoms: _126  and  _128
REMARK   53  A    between atoms: _128  and  _129
REMARK   54  A    between atoms: _128  and  _131
REMARK   55  A    between atoms: _131  and  _132
REMARK   56  A    between atoms: _132  and  _133
REMARK   57  A    between atoms: _135  and  _137
REMARK   58  A    between atoms: _137  and  _138
REMARK   59  A    between atoms: _137  and  _140
REMARK   60  A    between atoms: _140  and  _141
REMARK   61  A    between atoms: _141  and  _142
REMARK   62  A    between atoms: _142  and  _143
REMARK   63  A    between atoms: _143  and  _144
REMARK   64  A    between atoms: _148  and  _150
REMARK   65  A    between atoms: _150  and  _151
REMARK   66  A    between atoms: _150  and  _153
REMARK   67  A    between atoms: _153  and  _154
REMARK   68  A    between atoms: _157  and  _159
REMARK   69  A    between atoms: _159  and  _160
REMARK   70  A    between atoms: _159  and  _162
REMARK   71  A    between atoms: _162  and  _163
REMARK   72  A    between atoms: _166  and  _168
REMARK   73  A    between atoms: _168  and  _169
REMARK   74  A    between atoms: _168  and  _171
REMARK   75  A    between atoms: _171  and  _172
REMARK   76  A    between atoms: _175  and  _177
REMARK   77  A    between atoms: _177  and  _178
REMARK   78  A    between atoms: _177  and  _180
REMARK   79  A    between atoms: _180  and  _181
REMARK   80  A    between atoms: _181  and  _182
REMARK   81  A    between atoms: _182  and  _183
REMARK   82  A    between atoms: _183  and  _184
REMARK   83  A    between atoms: _188  and  _190
REMARK   84  A    between atoms: _190  and  _191
REMARK   85  A    between atoms: _190  and  _193
REMARK   86  A    between atoms: _196  and  _198
REMARK   87  A    between atoms: _198  and  _199
REMARK   88  A    between atoms: _198  and  _201
REMARK   89  A    between atoms: _201  and  _202
REMARK   90  A    between atoms: _205  and  _207
REMARK   91  A    between atoms: _207  and  _208
REMARK   92  A    between atoms: _207  and  _210
REMARK   93  A    between atoms: _210  and  _211
REMARK   94  A    between atoms: _211  and  _212
REMARK   95  A    between atoms: _217  and  _219
REMARK   96  A    between atoms: _219  and  _220
REMARK   97  A    between atoms: _219  and  _222
REMARK   98  A    between atoms: _222  and  _223
REMARK   99  A    between atoms: _228  and  _230
REMARK  100  A    between atoms: _230  and  _231
REMARK  101  A    between atoms: _230  and  _233
REMARK  102  A    between atoms: _233  and  _234
REMARK  103  A    between atoms: _237  and  _239
REMARK  104  A    between atoms: _239  and  _240
REMARK  105  A    between atoms: _239  and  _242
REMARK  106  A    between atoms: _242  and  _243
REMARK  107  A    between atoms: _243  and  _244
REMARK  108  A    between atoms: _247  and  _249
REMARK  109  A    between atoms: _249  and  _250
REMARK  110  A    between atoms: _249  and  _252
REMARK  111  A    between atoms: _252  and  _253
REMARK  112  A    between atoms: _256  and  _258
REMARK  113  A    between atoms: _258  and  _259
REMARK  114  A    between atoms: _258  and  _261
REMARK  115  A    between atoms: _264  and  _266
REMARK  116  A    between atoms: _266  and  _267
REMARK  117  A    between atoms: _266  and  _269
REMARK  118  A    between atoms: _269  and  _270
REMARK  119  A    between atoms: _270  and  _271
REMARK  120  A    between atoms: _271  and  _272
REMARK  121  A    between atoms: _272  and  _273
REMARK  122  A    between atoms: _277  and  _279
REMARK  123  A    between atoms: _279  and  _280
REMARK  124  A    between atoms: _279  and  _282
REMARK  125  A    between atoms: _282  and  _283
REMARK  126  A    between atoms: _286  and  _288
REMARK  127  A    between atoms: _288  and  _289
REMARK  128  A    between atoms: _288  and  _291
REMARK  129  A    between atoms: _291  and  _292
REMARK  130  A    between atoms: _292  and  _293
REMARK  131  A    between atoms: _296  and  _298
REMARK  132  A    between atoms: _298  and  _299
REMARK  133  A    between atoms: _298  and  _301
REMARK  134  A    between atoms: _301  and  _302
REMARK  135  A    between atoms: _302  and  _303
REMARK  136  A    between atoms: _305  and  _307
REMARK  137  A    between atoms: _307  and  _308
REMARK  138  A    between atoms: _307  and  _310
REMARK  139  A    between atoms: _313  and  _315
REMARK  140  A    between atoms: _315  and  _316
REMARK  141  A    between atoms: _315  and  _318
REMARK  142  A    between atoms: _318  and  _319
REMARK  143  A    between atoms: _319  and  _320
REMARK  144  A    between atoms: _322  and  _324
REMARK  145  A    between atoms: _324  and  _325
REMARK  146  A    between atoms: _324  and  _327
REMARK  147  A    between atoms: _327  and  _328
REMARK  148  A    between atoms: _328  and  _329
REMARK  149  A    between atoms: _332  and  _334
REMARK  150  A    between atoms: _334  and  _335
REMARK  151  A    between atoms: _334  and  _337
REMARK  152  A    between atoms: _337  and  _338
REMARK  153  A    between atoms: _343  and  _344
REMARK  154  A    between atoms: _346  and  _348
REMARK  155  A    between atoms: _348  and  _349
REMARK  156  A    between atoms: _348  and  _351
REMARK  157  A    between atoms: _355  and  _356
REMARK  158  A    between atoms: _361  and  _363
REMARK  159  A    between atoms: _363  and  _364
REMARK  160  A    between atoms: _366  and  _368
REMARK  161  A    between atoms: _368  and  _369
REMARK  162  A    between atoms: _371  and  _373
REMARK  163  A    between atoms: _373  and  _374
REMARK  164  A    between atoms: _373  and  _376
REMARK  165  A    between atoms: _376  and  _377
REMARK  166  A    between atoms: _377  and  _378
REMARK  167  A    between atoms: _381  and  _383
REMARK  168  A    between atoms: _383  and  _384
REMARK  169  A    between atoms: _383  and  _386
REMARK  170  A    between atoms: _386  and  _387
REMARK  171  A    between atoms: _387  and  _388
REMARK  172  A    between atoms: _390  and  _392
REMARK  173  A    between atoms: _392  and  _393
REMARK  174  A    between atoms: _392  and  _395
REMARK  175  A    between atoms: _395  and  _396
REMARK  176  A    between atoms: _402  and  _404
REMARK  177  A    between atoms: _404  and  _405
REMARK  178  A    between atoms: _404  and  _407
REMARK  179  A    between atoms: _407  and  _408
REMARK  180  A    between atoms: _410  and  _412
REMARK  181  A    between atoms: _412  and  _413
REMARK  182  A    between atoms: _412  and  _415
REMARK  183  A    between atoms: _415  and  _416
REMARK  184  A    between atoms: _419  and  _421
REMARK  185  A    between atoms: _421  and  _422
REMARK  186  A    between atoms: _421  and  _424
REMARK  187  A    between atoms: _424  and  _425
REMARK  188  A    between atoms: _425  and  _426
REMARK  189  A    between atoms: _426  and  _427
REMARK  190  A    between atoms: _436  and  _438
REMARK  191  A    between atoms: _438  and  _439
REMARK  192  A    between atoms: _438  and  _441
REMARK  193  A    between atoms: _441  and  _442
REMARK  194  A    between atoms: _447  and  _448
REMARK  195  A    between atoms: _450  and  _452
REMARK  196  A    between atoms: _452  and  _453
REMARK  197  A    between atoms: _452  and  _455
REMARK  198  A    between atoms: _455  and  _456
REMARK  199  A    between atoms: _459  and  _461
REMARK  200  A    between atoms: _461  and  _462
REMARK  201  A    between atoms: _461  and  _464
REMARK  202  A    between atoms: _464  and  _465
REMARK  203  A    between atoms: _468  and  _470
REMARK  204  A    between atoms: _470  and  _471
REMARK  205  A    between atoms: _470  and  _473
REMARK  206  A    between atoms: _473  and  _474
REMARK  207  A    between atoms: _474  and  _475
REMARK  208  A    between atoms: _475  and  _476
REMARK  209  A    between atoms: _476  and  _477
REMARK  210  A    between atoms: _482  and  _483
REMARK  211  A    between atoms: _488  and  _490
REMARK  212  A    between atoms: _490  and  _491
REMARK  213  A    between atoms: _490  and  _493
REMARK  214  A    between atoms: _493  and  _494
REMARK  215  A    between atoms: _494  and  _495
REMARK  216  A    between atoms: _498  and  _500
REMARK  217  A    between atoms: _500  and  _501
REMARK  218  A    between atoms: _500  and  _503
REMARK  219  A    between atoms: _503  and  _504
REMARK  220  A    between atoms: _509  and  _511
REMARK  221  A    between atoms: _511  and  _512
REMARK  222  A    between atoms: _511  and  _514
REMARK  223  A    between atoms: _514  and  _515
REMARK  224  A    between atoms: _518  and  _520
REMARK  225  A    between atoms: _520  and  _521
REMARK  226  A    between atoms: _520  and  _523
REMARK  227  A    between atoms: _523  and  _524
REMARK  228  A    between atoms: _527  and  _529
REMARK  229  A    between atoms: _529  and  _530
REMARK  230  A    between atoms: _529  and  _532
REMARK  231  A    between atoms: _532  and  _533
REMARK  232  A    between atoms: _536  and  _538
REMARK  233  A    between atoms: _538  and  _539
REMARK  234  A    between atoms: _538  and  _541
REMARK  235  A    between atoms: _541  and  _542
REMARK  236  A    between atoms: _542  and  _543
REMARK  237  A    between atoms: _548  and  _550
REMARK  238  A    between atoms: _550  and  _551
REMARK  239  A    between atoms: _550  and  _553
REMARK  240  A    between atoms: _556  and  _558
REMARK  241  A    between atoms: _558  and  _559
REMARK  242  A    between atoms: _558  and  _561
REMARK  243  A    between atoms: _561  and  _562
REMARK  244  A    between atoms: _565  and  _567
REMARK  245  A    between atoms: _567  and  _568
REMARK  246  A    between atoms: _567  and  _570
REMARK  247  A    between atoms: _570  and  _571
REMARK  248  A    between atoms: _574  and  _576
REMARK  249  A    between atoms: _576  and  _577
REMARK  250  A    between atoms: _576  and  _579
REMARK  251  A    between atoms: _579  and  _580
REMARK  252  A    between atoms: _586  and  _588
REMARK  253  A    between atoms: _588  and  _589
REMARK  254  A    between atoms: _591  and  _593
REMARK  255  A    between atoms: _593  and  _594
REMARK  256  A    between atoms: _593  and  _596
REMARK  257  A    between atoms: _596  and  _597
REMARK  258  A    between atoms: _603  and  _605
REMARK  259  A    between atoms: _605  and  _606
REMARK  260  A    between atoms: _605  and  _608
REMARK  261  A    between atoms: _610  and  _612
REMARK  262  A    between atoms: _612  and  _613
REMARK  263  A    between atoms: _615  and  _617
REMARK  264  A    between atoms: _617  and  _618
REMARK  265  A    between atoms: _617  and  _620
REMARK  266  A    between atoms: _620  and  _621
REMARK  267  A    between atoms: _625  and  _626
REMARK  268  A    between atoms: _631  and  _633
REMARK  269  A    between atoms: _633  and  _634
REMARK  270  A    between atoms: _633  and  _636
REMARK  271  A    between atoms: _636  and  _637
REMARK  272  A    between atoms: _637  and  _638
REMARK  273  A    between atoms: _641  and  _643
REMARK  274  A    between atoms: _643  and  _644
REMARK  275  A    between atoms: _643  and  _646
REMARK  276  A    between atoms: _646  and  _647
REMARK  277  A    between atoms: _652  and  _653
REMARK  278  A    between atoms: _655  and  _657
REMARK  279  A    between atoms: _657  and  _658
REMARK  280  A    between atoms: _657  and  _660
REMARK  281  A    between atoms: _663  and  _665
REMARK  282  A    between atoms: _665  and  _666
REMARK  283  A    between atoms: _665  and  _668
REMARK  284  A    between atoms: _668  and  _669
REMARK  285  A    between atoms: _672  and  _674
REMARK  286  A    between atoms: _674  and  _675
REMARK  287  A    between atoms: _674  and  _677
REMARK  288  A    between atoms: _677  and  _678
REMARK  289  A    between atoms: _678  and  _679
REMARK  290  A    between atoms: _682  and  _684
REMARK  291  A    between atoms: _684  and  _685
REMARK  292  A    between atoms: _684  and  _687
REMARK  293  A    between atoms: _687  and  _688
REMARK  294  A    between atoms: _688  and  _689
REMARK  295  A    between atoms: _691  and  _693
REMARK  296  A    between atoms: _693  and  _694
REMARK  297  A    between atoms: _696  and  _698
REMARK  298  A    between atoms: _698  and  _699
REMARK  299  A    between atoms: _698  and  _701
REMARK  300  A    between atoms: _701  and  _702
REMARK  301  A    between atoms: _707  and  _708
REMARK  302  A    between atoms: _711  and  _712
REMARK  303  A    between atoms: _718  and  _719
REMARK  304  A    between atoms: _724  and  _726
REMARK  305  A    between atoms: _726  and  _727
REMARK  306  A    between atoms: _726  and  _729
REMARK  307  A    between atoms: _729  and  _730
REMARK  308  A    between atoms: _736  and  _738
REMARK  309  A    between atoms: _738  and  _739
REMARK  310  A    between atoms: _738  and  _741
REMARK  311  A    between atoms: _741  and  _742
REMARK  312  A    between atoms: _748  and  _750
REMARK  313  A    between atoms: _750  and  _751
REMARK  314  A    between atoms: _750  and  _753
REMARK  315  A    between atoms: _753  and  _754
REMARK  316  A    between atoms: _757  and  _759
REMARK  317  A    between atoms: _759  and  _760
REMARK  318  A    between atoms: _759  and  _762
REMARK  319  A    between atoms: _762  and  _763
REMARK  320  A    between atoms: _768  and  _770
REMARK  321  A    between atoms: _770  and  _771
REMARK  322  A    between atoms: _770  and  _773
REMARK  323  A    between atoms: _773  and  _774
REMARK  324  A    between atoms: _780  and  _782
REMARK  325  A    between atoms: _782  and  _783
REMARK  326  A    between atoms: _782  and  _785
REMARK  327  A    between atoms: _785  and  _786
REMARK  328  A    between atoms: _789  and  _791
REMARK  329  A    between atoms: _791  and  _792
REMARK  330  A    between atoms: _791  and  _794
REMARK  331  A    between atoms: _794  and  _795
REMARK  332  A    between atoms: _800  and  _801
REMARK                            x       y       z     vdW  Elec       q    Type
REMARK                         _______ _______ _______ _____ _____    ______ ____
ROOT
ATOM      1  CA  LEU A   1      -8.605  18.396  17.968  0.00  0.00    +0.133 C 
ENDROOT
BRANCH   1   2
ATOM      2  N   LEU A   1      -8.531  19.749  17.416  0.00  0.00    -0.239 NA
ATOM      3  H   LEU A   1      -8.797  19.899  16.422  0.00  0.00    +0.142 HD
ENDBRANCH   1   2
BRANCH   1   4
ATOM      4  C   LEU A   1      -7.302  17.614  17.799  0.00  0.00    +0.224 C 
ATOM      5  O   LEU A   1      -7.270  16.402  17.999  0.00  0.00    -0.287 OA
ENDBRANCH   1   4
BRANCH   1   6
ATOM      6  CB  LEU A   1      -9.813  17.633  17.388  0.00  0.00    +0.025 C 
BRANCH   6   7
ATOM      7  CG  LEU A   1     -11.151  18.218  17.863  0.00  0.00    +0.002 C 
ATOM      8  CD2 LEU A   1     -11.308  18.068  19.398  0.00  0.00    +0.000 C 
ATOM      9  CD1 LEU A   1     -12.330  17.592  17.150  0.00  0.00    +0.000 C 
ENDBRANCH   6   7
ENDBRANCH   1   6
TORSDOF 4
REMARK  Name = ../refined-set-2016/3agl/3agl_pocket.pdb
REMARK  332 active torsions:
REMARK  status: ('A' for Active; 'I' for Inactive)
REMARK    1  A    between atoms: _1  and  _3
REMARK    2  A    between atoms: _3  and  _4
REMARK    3  A    between atoms: _3  and  _6
REMARK    4  A    between atoms: _6  and  _7
REMARK    5  A    between atoms: _10  and  _12
REMARK    6  A    between atoms: _12  and  _13
REMARK    7  A    between atoms: _12  and  _15
REMARK    8  A    between atoms: _15  and  _16
REMARK    9  A    between atoms: _19  and  _21
REMARK   10  A    between atoms: _21  and  _22
REMARK   11  A    between atoms: _24  and  _26
REMARK   12  A    between atoms: _26  and  _27
REMARK   13  A    between atoms: _26  and  _29
REMARK   14  A    between atoms: _29  and  _30
REMARK   15  A    between atoms: _33  and  _35
REMARK   16  A    between atoms: _35  and  _36
REMARK   17  A    between atoms: _38  and  _40
REMARK   18  A    between atoms: _40  and  _41
REMARK   19  A    between atoms: _40  and  _43
REMARK   20  A    between atoms: _43  and  _44
REMARK   21  A    between atoms: _46  and  _48
REMARK   22  A    between atoms: _48  and  _49
REMARK   23  A    between atoms: _48  and  _51
REMARK   24  A    between atoms: _51  and  _52
REMARK   25  A    between atoms: _58  and  _60
REMARK   26  A    between atoms: _60  and  _61
REMARK   27  A    between atoms: _63  and  _65
REMARK   28  A    between atoms: _65  and  _66
REMARK   29  A    between atoms: _65  and  _68
REMARK   30  A    between atoms: _68  and  _69
REMARK   31  A    between atoms: _69  and  _70
REMARK   32  A    between atoms: _70  and  _71
REMARK   33  A    between atoms: _80  and  _82
REMARK   34  A    between atoms: _82  and  _83
REMARK   35  A    between atoms: _82  and  _85
REMARK   36  A    between atoms: _88  and  _90
REMARK   37  A    between atoms: _90  and  _91
REMARK   38  A    between atoms: _90  and  _93
REMARK   39  A    between atoms: _93  and  _94
REMARK   40  A    between atoms: _94  and  _95
REMARK   41  A    between atoms: _97  and  _99
REMARK   42  A    between atoms: _99  and  _100
REMARK   43  A    between atoms: _99  and  _102
REMARK   44  A    between atoms: _102  and  _103
REMARK   45  A    between atoms: _106  and  _108
REMARK   46  A    between atoms: _108  and  _109
REMARK   47  A    between atoms: _108  and  _111
REMARK   48  A    between atoms: _111  and  _112
REMARK   49  A    between atoms: _117  and  _118
REMARK   50  A    between atoms: _120  and  _122
REMARK   51  A    between atoms: _122  and  _123
REMARK   52  A    between atoms: _126  and  _128
REMARK   53  A    between atoms: _128  and  _129
REMARK   54  A    between atoms: _128  and  _131
REMARK   55  A    between atoms: _131  and  _132
REMARK   56  A    between atoms: _132  and  _133
REMARK   57  A    between atoms: _135  and  _137
REMARK   58  A    between atoms: _137  and  _138
REMARK   59  A    between atoms: _137  and  _140
REMARK   60  A    between atoms: _140  and  _141
REMARK   61  A    between atoms: _141  and  _142
REMARK   62  A    between atoms: _142  and  _143
REMARK   63  A    between atoms: _143  and  _144
REMARK   64  A    between atoms: _148  and  _150
REMARK   65  A    between atoms: _150  and  _151
REMARK   66  A    between atoms: _150  and  _153
REMARK   67  A    between atoms: _153  and  _154
REMARK   68  A    between atoms: _157  and  _159
REMARK   69  A    between atoms: _159  and  _160
REMARK   70  A    between atoms: _159  and  _162
REMARK   71  A    between atoms: _162  and  _163
REMARK   72  A    between atoms: _166  and  _168
REMARK   73  A    between atoms: _168  and  _169
REMARK   74  A    between atoms: _168  and  _171
REMARK   75  A    between atoms: _171  and  _172
REMARK   76  A    between atoms: _175  and  _177
REMARK   77  A    between atoms: _177  and  _178
REMARK   78  A    between atoms: _177  and  _180
REMARK   79  A    between atoms: _180  and  _181
REMARK   80  A    between atoms: _181  and  _182
REMARK   81  A    between atoms: _182  and  _183
REMARK   82  A    between atoms: _183  and  _184
REMARK   83  A    between atoms: _188  and  _190
REMARK   84  A    between atoms: _190  and  _191
REMARK   85  A    between atoms: _190  and  _193
REMARK   86  A    between atoms: _196  and  _198
REMARK   87  A    between atoms: _198  and  _199
REMARK   88  A    between atoms: _198  and  _201
REMARK   89  A    between atoms: _201  and  _202
REMARK   90  A    between atoms: _205  and  _207
REMARK   91  A    between atoms: _207  and  _208
REMARK   92  A    between atoms: _207  and  _210
REMARK   93  A    between atoms: _210  and  _211
REMARK   94  A    between atoms: _211  and  _212
REMARK   95  A    between atoms: _217  and  _219
REMARK   96  A    between atoms: _219  and  _220
REMARK   97  A    between atoms: _219  and  _222
REMARK   98  A    between atoms: _222  and  _223
REMARK   99  A    between atoms: _228  and  _230
REMARK  100  A    between atoms: _230  and  _231
REMARK  101  A    between atoms: _230  and  _233
REMARK  102  A    between atoms: _233  and  _234
REMARK  103  A    between atoms: _237  and  _239
REMARK  104  A    between atoms: _239  and  _240
REMARK  105  A    between atoms: _239  and  _242
REMARK  106  A    between atoms: _242  and  _243
REMARK  107  A    between atoms: _243  and  _244
REMARK  108  A    between atoms: _247  and  _249
REMARK  109  A    between atoms: _249  and  _250
REMARK  110  A    between atoms: _249  and  _252
REMARK  111  A    between atoms: _252  and  _253
REMARK  112  A    between atoms: _256  and  _258
REMARK  113  A    between atoms: _258  and  _259
REMARK  114  A    between atoms: _258  and  _261
REMARK  115  A    between atoms: _264  and  _266
REMARK  116  A    between atoms: _266  and  _267
REMARK  117  A    between atoms: _266  and  _269
REMARK  118  A    between atoms: _269  and  _270
REMARK  119  A    between atoms: _270  and  _271
REMARK  120  A    between atoms: _271  and  _272
REMARK  121  A    between atoms: _272  and  _273
REMARK  122  A    between atoms: _277  and  _279
REMARK  123  A    between atoms: _279  and  _280
REMARK  124  A    between atoms: _279  and  _282
REMARK  125  A    between atoms: _282  and  _283
REMARK  126  A    between atoms: _286  and  _288
REMARK  127  A    between atoms: _288  and  _289
REMARK  128  A    between atoms: _288  and  _291
REMARK  129  A    between atoms: _291  and  _292
REMARK  130  A    between atoms: _292  and  _293
REMARK  131  A    between atoms: _296  and  _298
REMARK  132  A    between atoms: _298  and  _299
REMARK  133  A    between atoms: _298  and  _301
REMARK  134  A    between atoms: _301  and  _302
REMARK  135  A    between atoms: _302  and  _303
REMARK  136  A    between atoms: _305  and  _307
REMARK  137  A    between atoms: _307  and  _308
REMARK  138  A    between atoms: _307  and  _310
REMARK  139  A    between atoms: _313  and  _315
REMARK  140  A    between atoms: _315  and  _316
REMARK  141  A    between atoms: _315  and  _318
REMARK  142  A    between atoms: _318  and  _319
REMARK  143  A    between atoms: _319  and  _320
REMARK  144  A    between atoms: _322  and  _324
REMARK  145  A    between atoms: _324  and  _325
REMARK  146  A    between atoms: _324  and  _327
REMARK  147  A    between atoms: _327  and  _328
REMARK  148  A    between atoms: _328  and  _329
REMARK  149  A    between atoms: _332  and  _334
REMARK  150  A    between atoms: _334  and  _335
REMARK  151  A    between atoms: _334  and  _337
REMARK  152  A    between atoms: _337  and  _338
REMARK  153  A    between atoms: _343  and  _344
REMARK  154  A    between atoms: _346  and  _348
REMARK  155  A    between atoms: _348  and  _349
REMARK  156  A    between atoms: _348  and  _351
REMARK  157  A    between atoms: _355  and  _356
REMARK  158  A    between atoms: _361  and  _363
REMARK  159  A    between atoms: _363  and  _364
REMARK  160  A    between atoms: _366  and  _368
REMARK  161  A    between atoms: _368  and  _369
REMARK  162  A    between atoms: _371  and  _373
REMARK  163  A    between atoms: _373  and  _374
REMARK  164  A    between atoms: _373  and  _376
REMARK  165  A    between atoms: _376  and  _377
REMARK  166  A    between atoms: _377  and  _378
REMARK  167  A    between atoms: _381  and  _383
REMARK  168  A    between atoms: _383  and  _384
REMARK  169  A    between atoms: _383  and  _386
REMARK  170  A    between atoms: _386  and  _387
REMARK  171  A    between atoms: _387  and  _388
REMARK  172  A    between atoms: _390  and  _392
REMARK  173  A    between atoms: _392  and  _393
REMARK  174  A    between atoms: _392  and  _395
REMARK  175  A    between atoms: _395  and  _396
REMARK  176  A    between atoms: _402  and  _404
REMARK  177  A    between atoms: _404  and  _405
REMARK  178  A    between atoms: _404  and  _407
REMARK  179  A    between atoms: _407  and  _408
REMARK  180  A    between atoms: _410  and  _412
REMARK  181  A    between atoms: _412  and  _413
REMARK  182  A    between atoms: _412  and  _415
REMARK  183  A    between atoms: _415  and  _416
REMARK  184  A    between atoms: _419  and  _421
REMARK  185  A    between atoms: _421  and  _422
REMARK  186  A    between atoms: _421  and  _424
REMARK  187  A    between atoms: _424  and  _425
REMARK  188  A    between atoms: _425  and  _426
REMARK  189  A    between atoms: _426  and  _427
REMARK  190  A    between atoms: _436  and  _438
REMARK  191  A    between atoms: _438  and  _439
REMARK  192  A    between atoms: _438  and  _441
REMARK  193  A    between atoms: _441  and  _442
REMARK  194  A    between atoms: _447  and  _448
REMARK  195  A    between atoms: _450  and  _452
REMARK  196  A    between atoms: _452  and  _453
REMARK  197  A    between atoms: _452  and  _455
REMARK  198  A    between atoms: _455  and  _456
REMARK  199  A    between atoms: _459  and  _461
REMARK  200  A    between atoms: _461  and  _462
REMARK  201  A    between atoms: _461  and  _464
REMARK  202  A    between atoms: _464  and  _465
REMARK  203  A    between atoms: _468  and  _470
REMARK  204  A    between atoms: _470  and  _471
REMARK  205  A    between atoms: _470  and  _473
REMARK  206  A    between atoms: _473  and  _474
REMARK  207  A    between atoms: _474  and  _475
REMARK  208  A    between atoms: _475  and  _476
REMARK  209  A    between atoms: _476  and  _477
REMARK  210  A    between atoms: _482  and  _483
REMARK  211  A    between atoms: _488  and  _490
REMARK  212  A    between atoms: _490  and  _491
REMARK  213  A    between atoms: _490  and  _493
REMARK  214  A    between atoms: _493  and  _494
REMARK  215  A    between atoms: _494  and  _495
REMARK  216  A    between atoms: _498  and  _500
REMARK  217  A    between atoms: _500  and  _501
REMARK  218  A    between atoms: _500  and  _503
REMARK  219  A    between atoms: _503  and  _504
REMARK  220  A    between atoms: _509  and  _511
REMARK  221  A    between atoms: _511  and  _512
REMARK  222  A    between atoms: _511  and  _514
REMARK  223  A    between atoms: _514  and  _515
REMARK  224  A    between atoms: _518  and  _520
REMARK  225  A    between atoms: _520  and  _521
REMARK  226  A    between atoms: _520  and  _523
REMARK  227  A    between atoms: _523  and  _524
REMARK  228  A    between atoms: _527  and  _529
REMARK  229  A    between atoms: _529  and  _530
REMARK  230  A    between atoms: _529  and  _532
REMARK  231  A    between atoms: _532  and  _533
REMARK  232  A    between atoms: _536  and  _538
REMARK  233  A    between atoms: _538  and  _539
REMARK  234  A    between atoms: _538  and  _541
REMARK  235  A    between atoms: _541  and  _542
REMARK  236  A    between atoms: _542  and  _543
REMARK  237  A    between atoms: _548  and  _550
REMARK  238  A    between atoms: _550  and  _551
REMARK  239  A    between atoms: _550  and  _553
REMARK  240  A    between atoms: _556  and  _558
REMARK  241  A    between atoms: _558  and  _559
REMARK  242  A    between atoms: _558  and  _561
REMARK  243  A    between atoms: _561  and  _562
REMARK  244  A    between atoms: _565  and  _567
REMARK  245  A    between atoms: _567  and  _568
REMARK  246  A    between atoms: _567  and  _570
REMARK  247  A    between atoms: _570  and  _571
REMARK  248  A    between atoms: _574  and  _576
REMARK  249  A    between atoms: _576  and  _577
REMARK  250  A    between atoms: _576  and  _579
REMARK  251  A    between atoms: _579  and  _580
REMARK  252  A    between atoms: _586  and  _588
REMARK  253  A    between atoms: _588  and  _589
REMARK  254  A    between atoms: _591  and  _593
REMARK  255  A    between atoms: _593  and  _594
REMARK  256  A    between atoms: _593  and  _596
REMARK  257  A    between atoms: _596  and  _597
REMARK  258  A    between atoms: _603  and  _605
REMARK  259  A    between atoms: _605  and  _606
REMARK  260  A    between atoms: _605  and  _608
REMARK  261  A    between atoms: _610  and  _612
REMARK  262  A    between atoms: _612  and  _613
REMARK  263  A    between atoms: _615  and  _617
REMARK  264  A    between atoms: _617  and  _618
REMARK  265  A    between atoms: _617  and  _620
REMARK  266  A    between atoms: _620  and  _621
REMARK  267  A    between atoms: _625  and  _626
REMARK  268  A    between atoms: _631  and  _633
REMARK  269  A    between atoms: _633  and  _634
REMARK  270  A    between atoms: _633  and  _636
REMARK  271  A    between atoms: _636  and  _637
REMARK  272  A    between atoms: _637  and  _638
REMARK  273  A    between atoms: _641  and  _643
REMARK  274  A    between atoms: _643  and  _644
REMARK  275  A    between atoms: _643  and  _646
REMARK  276  A    between atoms: _646  and  _647
REMARK  277  A    between atoms: _652  and  _653
REMARK  278  A    between atoms: _655  and  _657
REMARK  279  A    between atoms: _657  and  _658
REMARK  280  A    between atoms: _657  and  _660
REMARK  281  A    between atoms: _663  and  _665
REMARK  282  A    between atoms: _665  and  _666
REMARK  283  A    between atoms: _665  and  _668
REMARK  284  A    between atoms: _668  and  _669
REMARK  285  A    between atoms: _672  and  _674
REMARK  286  A    between atoms: _674  and  _675
REMARK  287  A    between atoms: _674  and  _677
REMARK  288  A    between atoms: _677  and  _678
REMARK  289  A    between atoms: _678  and  _679
REMARK  290  A    between atoms: _682  and  _684
REMARK  291  A    between atoms: _684  and  _685
REMARK  292  A    between atoms: _684  and  _687
REMARK  293  A    between atoms: _687  and  _688
REMARK  294  A    between atoms: _688  and  _689
REMARK  295  A    between atoms: _691  and  _693
REMARK  296  A    between atoms: _693  and  _694
REMARK  297  A    between atoms: _696  and  _698
REMARK  298  A    between atoms: _698  and  _699
REMARK  299  A    between atoms: _698  and  _701
REMARK  300  A    between atoms: _701  and  _702
REMARK  301  A    between atoms: _707  and  _708
REMARK  302  A    between atoms: _711  and  _712
REMARK  303  A    between atoms: _718  and  _719
REMARK  304  A    between atoms: _724  and  _726
REMARK  305  A    between atoms: _726  and  _727
REMARK  306  A    between atoms: _726  and  _729
REMARK  307  A    between atoms: _729  and  _730
REMARK  308  A    between atoms: _736  and  _738
REMARK  309  A    between atoms: _738  and  _739
REMARK  310  A    between atoms: _738  and  _741
REMARK  311  A    between atoms: _741  and  _742
REMARK  312  A    between atoms: _748  and  _750
REMARK  313  A    between atoms: _750  and  _751
REMARK  314  A    between atoms: _750  and  _753
REMARK  315  A    between atoms: _753  and  _754
REMARK  316  A    between atoms: _757  and  _759
REMARK  317  A    between atoms: _759  and  _760
REMARK  318  A    between atoms: _759  and  _762
REMARK  319  A    between atoms: _762  and  _763
REMARK  320  A    between atoms: _768  and  _770
REMARK  321  A    between atoms: _770  and  _771
REMARK  322  A    between atoms: _770  and  _773
REMARK  323  A    between atoms: _773  and  _774
REMARK  324  A    between atoms: _780  and  _782
REMARK  325  A    between atoms: _782  and  _783
REMARK  326  A    between atoms: _782  and  _785
REMARK  327  A    between atoms: _785  and  _786
REMARK  328  A    between atoms: _789  and  _791
REMARK  329  A    between atoms: _791  and  _792
REMARK  330  A    between atoms: _791  and  _794
REMARK  331  A    between atoms: _794  and  _795
REMARK  332  A    between atoms: _800  and  _801
REMARK                            x       y       z     vdW  Elec       q    Type
REMARK                         _______ _______ _______ _____ _____    ______ ____
ROOT
ATOM      1  CB  GLN A   1      -7.019  15.132  13.994  0.00  0.00    +0.035 C 
ENDROOT
BRANCH   1   2
ATOM      2  CA  GLN A   1      -5.562  15.490  14.324  0.00  0.00    +0.134 C 
BRANCH   2   3
ATOM      3  N   GLN A   1      -5.531  16.601  15.264  0.00  0.00    -0.239 NA
ATOM      4  H   GLN A   1      -6.084  17.457  15.059  0.00  0.00    +0.142 HD
ENDBRANCH   2   3
BRANCH   2   5
ATOM      5  C   GLN A   1      -4.752  15.736  13.042  0.00  0.00    +0.224 C 
ATOM      6  O   GLN A   1      -4.971  15.074  12.029  0.00  0.00    -0.287 OA
ENDBRANCH   2   5
ENDBRANCH   1   2
BRANCH   1   7
ATOM      7  CG  GLN A   1      -7.806  14.589  15.181  0.00  0.00    +0.087 C 
BRANCH   7   8
ATOM      8  CD  GLN A   1      -7.248  13.267  15.676  0.00  0.00    +0.219 C 
ATOM      9  NE2 GLN A   1      -6.842  13.228  16.935  0.00  0.00    -0.329 N 
ATOM     10 HE21 GLN A   1      -6.920  14.075  17.533  0.00  0.00    +0.145 HD
ATOM     11 HE22 GLN A   1      -6.445  12.350  17.326  0.00  0.00    +0.145 HD
ATOM     12  OE1 GLN A   1      -7.179  12.297  14.928  0.00  0.00    -0.275 OA
ENDBRANCH   7   8
ENDBRANCH   1   7
TORSDOF 5
REMARK  Name = ../refined-set-2016/3agl/3agl_pocket.pdb
REMARK  332 active torsions:
REMARK  status: ('A' for Active; 'I' for Inactive)
REMARK    1  A    between atoms: _1  and  _3
REMARK    2  A    between atoms: _3  and  _4
REMARK    3  A    between atoms: _3  and  _6
REMARK    4  A    between atoms: _6  and  _7
REMARK    5  A    between atoms: _10  and  _12
REMARK    6  A    between atoms: _12  and  _13
REMARK    7  A    between atoms: _12  and  _15
REMARK    8  A    between atoms: _15  and  _16
REMARK    9  A    between atoms: _19  and  _21
REMARK   10  A    between atoms: _21  and  _22
REMARK   11  A    between atoms: _24  and  _26
REMARK   12  A    between atoms: _26  and  _27
REMARK   13  A    between atoms: _26  and  _29
REMARK   14  A    between atoms: _29  and  _30
REMARK   15  A    between atoms: _33  and  _35
REMARK   16  A    between atoms: _35  and  _36
REMARK   17  A    between atoms: _38  and  _40
REMARK   18  A    between atoms: _40  and  _41
REMARK   19  A    between atoms: _40  and  _43
REMARK   20  A    between atoms: _43  and  _44
REMARK   21  A    between atoms: _46  and  _48
REMARK   22  A    between atoms: _48  and  _49
REMARK   23  A    between atoms: _48  and  _51
REMARK   24  A    between atoms: _51  and  _52
REMARK   25  A    between atoms: _58  and  _60
REMARK   26  A    between atoms: _60  and  _61
REMARK   27  A    between atoms: _63  and  _65
REMARK   28  A    between atoms: _65  and  _66
REMARK   29  A    between atoms: _65  and  _68
REMARK   30  A    between atoms: _68  and  _69
REMARK   31  A    between atoms: _69  and  _70
REMARK   32  A    between atoms: _70  and  _71
REMARK   33  A    between atoms: _80  and  _82
REMARK   34  A    between atoms: _82  and  _83
REMARK   35  A    between atoms: _82  and  _85
REMARK   36  A    between atoms: _88  and  _90
REMARK   37  A    between atoms: _90  and  _91
REMARK   38  A    between atoms: _90  and  _93
REMARK   39  A    between atoms: _93  and  _94
REMARK   40  A    between atoms: _94  and  _95
REMARK   41  A    between atoms: _97  and  _99
REMARK   42  A    between atoms: _99  and  _100
REMARK   43  A    between atoms: _99  and  _102
REMARK   44  A    between atoms: _102  and  _103
REMARK   45  A    between atoms: _106  and  _108
REMARK   46  A    between atoms: _108  and  _109
REMARK   47  A    between atoms: _108  and  _111
REMARK   48  A    between atoms: _111  and  _112
REMARK   49  A    between atoms: _117  and  _118
REMARK   50  A    between atoms: _120  and  _122
REMARK   51  A    between atoms: _122  and  _123
REMARK   52  A    between atoms: _126  and  _128
REMARK   53  A    between atoms: _128  and  _129
REMARK   54  A    between atoms: _128  and  _131
REMARK   55  A    between atoms: _131  and  _132
REMARK   56  A    between atoms: _132  and  _133
REMARK   57  A    between atoms: _135  and  _137
REMARK   58  A    between atoms: _137  and  _138
REMARK   59  A    between atoms: _137  and  _140
REMARK   60  A    between atoms: _140  and  _141
REMARK   61  A    between atoms: _141  and  _142
REMARK   62  A    between atoms: _142  and  _143
REMARK   63  A    between atoms: _143  and  _144
REMARK   64  A    between atoms: _148  and  _150
REMARK   65  A    between atoms: _150  and  _151
REMARK   66  A    between atoms: _150  and  _153
REMARK   67  A    between atoms: _153  and  _154
REMARK   68  A    between atoms: _157  and  _159
REMARK   69  A    between atoms: _159  and  _160
REMARK   70  A    between atoms: _159  and  _162
REMARK   71  A    between atoms: _162  and  _163
REMARK   72  A    between atoms: _166  and  _168
REMARK   73  A    between atoms: _168  and  _169
REMARK   74  A    between atoms: _168  and  _171
REMARK   75  A    between atoms: _171  and  _172
REMARK   76  A    between atoms: _175  and  _177
REMARK   77  A    between atoms: _177  and  _178
REMARK   78  A    between atoms: _177  and  _180
REMARK   79  A    between atoms: _180  and  _181
REMARK   80  A    between atoms: _181  and  _182
REMARK   81  A    between atoms: _182  and  _183
REMARK   82  A    between atoms: _183  and  _184
REMARK   83  A    between atoms: _188  and  _190
REMARK   84  A    between atoms: _190  and  _191
REMARK   85  A    between atoms: _190  and  _193
REMARK   86  A    between atoms: _196  and  _198
REMARK   87  A    between atoms: _198  and  _199
REMARK   88  A    between atoms: _198  and  _201
REMARK   89  A    between atoms: _201  and  _202
REMARK   90  A    between atoms: _205  and  _207
REMARK   91  A    between atoms: _207  and  _208
REMARK   92  A    between atoms: _207  and  _210
REMARK   93  A    between atoms: _210  and  _211
REMARK   94  A    between atoms: _211  and  _212
REMARK   95  A    between atoms: _217  and  _219
REMARK   96  A    between atoms: _219  and  _220
REMARK   97  A    between atoms: _219  and  _222
REMARK   98  A    between atoms: _222  and  _223
REMARK   99  A    between atoms: _228  and  _230
REMARK  100  A    between atoms: _230  and  _231
REMARK  101  A    between atoms: _230  and  _233
REMARK  102  A    between atoms: _233  and  _234
REMARK  103  A    between atoms: _237  and  _239
REMARK  104  A    between atoms: _239  and  _240
REMARK  105  A    between atoms: _239  and  _242
REMARK  106  A    between atoms: _242  and  _243
REMARK  107  A    between atoms: _243  and  _244
REMARK  108  A    between atoms: _247  and  _249
REMARK  109  A    between atoms: _249  and  _250
REMARK  110  A    between atoms: _249  and  _252
REMARK  111  A    between atoms: _252  and  _253
REMARK  112  A    between atoms: _256  and  _258
REMARK  113  A    between atoms: _258  and  _259
REMARK  114  A    between atoms: _258  and  _261
REMARK  115  A    between atoms: _264  and  _266
REMARK  116  A    between atoms: _266  and  _267
REMARK  117  A    between atoms: _266  and  _269
REMARK  118  A    between atoms: _269  and  _270
REMARK  119  A    between atoms: _270  and  _271
REMARK  120  A    between atoms: _271  and  _272
REMARK  121  A    between atoms: _272  and  _273
REMARK  122  A    between atoms: _277  and  _279
REMARK  123  A    between atoms: _279  and  _280
REMARK  124  A    between atoms: _279  and  _282
REMARK  125  A    between atoms: _282  and  _283
REMARK  126  A    between atoms: _286  and  _288
REMARK  127  A    between atoms: _288  and  _289
REMARK  128  A    between atoms: _288  and  _291
REMARK  129  A    between atoms: _291  and  _292
REMARK  130  A    between atoms: _292  and  _293
REMARK  131  A    between atoms: _296  and  _298
REMARK  132  A    between atoms: _298  and  _299
REMARK  133  A    between atoms: _298  and  _301
REMARK  134  A    between atoms: _301  and  _302
REMARK  135  A    between atoms: _302  and  _303
REMARK  136  A    between atoms: _305  and  _307
REMARK  137  A    between atoms: _307  and  _308
REMARK  138  A    between atoms: _307  and  _310
REMARK  139  A    between atoms: _313  and  _315
REMARK  140  A    between atoms: _315  and  _316
REMARK  141  A    between atoms: _315  and  _318
REMARK  142  A    between atoms: _318  and  _319
REMARK  143  A    between atoms: _319  and  _320
REMARK  144  A    between atoms: _322  and  _324
REMARK  145  A    between atoms: _324  and  _325
REMARK  146  A    between atoms: _324  and  _327
REMARK  147  A    between atoms: _327  and  _328
REMARK  148  A    between atoms: _328  and  _329
REMARK  149  A    between atoms: _332  and  _334
REMARK  150  A    between atoms: _334  and  _335
REMARK  151  A    between atoms: _334  and  _337
REMARK  152  A    between atoms: _337  and  _338
REMARK  153  A    between atoms: _343  and  _344
REMARK  154  A    between atoms: _346  and  _348
REMARK  155  A    between atoms: _348  and  _349
REMARK  156  A    between atoms: _348  and  _351
REMARK  157  A    between atoms: _355  and  _356
REMARK  158  A    between atoms: _361  and  _363
REMARK  159  A    between atoms: _363  and  _364
REMARK  160  A    between atoms: _366  and  _368
REMARK  161  A    between atoms: _368  and  _369
REMARK  162  A    between atoms: _371  and  _373
REMARK  163  A    between atoms: _373  and  _374
REMARK  164  A    between atoms: _373  and  _376
REMARK  165  A    between atoms: _376  and  _377
REMARK  166  A    between atoms: _377  and  _378
REMARK  167  A    between atoms: _381  and  _383
REMARK  168  A    between atoms: _383  and  _384
REMARK  169  A    between atoms: _383  and  _386
REMARK  170  A    between atoms: _386  and  _387
REMARK  171  A    between atoms: _387  and  _388
REMARK  172  A    between atoms: _390  and  _392
REMARK  173  A    between atoms: _392  and  _393
REMARK  174  A    between atoms: _392  and  _395
REMARK  175  A    between atoms: _395  and  _396
REMARK  176  A    between atoms: _402  and  _404
REMARK  177  A    between atoms: _404  and  _405
REMARK  178  A    between atoms: _404  and  _407
REMARK  179  A    between atoms: _407  and  _408
REMARK  180  A    between atoms: _410  and  _412
REMARK  181  A    between atoms: _412  and  _413
REMARK  182  A    between atoms: _412  and  _415
REMARK  183  A    between atoms: _415  and  _416
REMARK  184  A    between atoms: _419  and  _421
REMARK  185  A    between atoms: _421  and  _422
REMARK  186  A    between atoms: _421  and  _424
REMARK  187  A    between atoms: _424  and  _425
REMARK  188  A    between atoms: _425  and  _426
REMARK  189  A    between atoms: _426  and  _427
REMARK  190  A    between atoms: _436  and  _438
REMARK  191  A    between atoms: _438  and  _439
REMARK  192  A    between atoms: _438  and  _441
REMARK  193  A    between atoms: _441  and  _442
REMARK  194  A    between atoms: _447  and  _448
REMARK  195  A    between atoms: _450  and  _452
REMARK  196  A    between atoms: _452  and  _453
REMARK  197  A    between atoms: _452  and  _455
REMARK  198  A    between atoms: _455  and  _456
REMARK  199  A    between atoms: _459  and  _461
REMARK  200  A    between atoms: _461  and  _462
REMARK  201  A    between atoms: _461  and  _464
REMARK  202  A    between atoms: _464  and  _465
REMARK  203  A    between atoms: _468  and  _470
REMARK  204  A    between atoms: _470  and  _471
REMARK  205  A    between atoms: _470  and  _473
REMARK  206  A    between atoms: _473  and  _474
REMARK  207  A    between atoms: _474  and  _475
REMARK  208  A    between atoms: _475  and  _476
REMARK  209  A    between atoms: _476  and  _477
REMARK  210  A    between atoms: _482  and  _483
REMARK  211  A    between atoms: _488  and  _490
REMARK  212  A    between atoms: _490  and  _491
REMARK  213  A    between atoms: _490  and  _493
REMARK  214  A    between atoms: _493  and  _494
REMARK  215  A    between atoms: _494  and  _495
REMARK  216  A    between atoms: _498  and  _500
REMARK  217  A    between atoms: _500  and  _501
REMARK  218  A    between atoms: _500  and  _503
REMARK  219  A    between atoms: _503  and  _504
REMARK  220  A    between atoms: _509  and  _511
REMARK  221  A    between atoms: _511  and  _512
REMARK  222  A    between atoms: _511  and  _514
REMARK  223  A    between atoms: _514  and  _515
REMARK  224  A    between atoms: _518  and  _520
REMARK  225  A    between atoms: _520  and  _521
REMARK  226  A    between atoms: _520  and  _523
REMARK  227  A    between atoms: _523  and  _524
REMARK  228  A    between atoms: _527  and  _529
REMARK  229  A    between atoms: _529  and  _530
REMARK  230  A    between atoms: _529  and  _532
REMARK  231  A    between atoms: _532  and  _533
REMARK  232  A    between atoms: _536  and  _538
REMARK  233  A    between atoms: _538  and  _539
REMARK  234  A    between atoms: _538  and  _541
REMARK  235  A    between atoms: _541  and  _542
REMARK  236  A    between atoms: _542  and  _543
REMARK  237  A    between atoms: _548  and  _550
REMARK  238  A    between atoms: _550  and  _551
REMARK  239  A    between atoms: _550  and  _553
REMARK  240  A    between atoms: _556  and  _558
REMARK  241  A    between atoms: _558  and  _559
REMARK  242  A    between atoms: _558  and  _561
REMARK  243  A    between atoms: _561  and  _562
REMARK  244  A    between atoms: _565  and  _567
REMARK  245  A    between atoms: _567  and  _568
REMARK  246  A    between atoms: _567  and  _570
REMARK  247  A    between atoms: _570  and  _571
REMARK  248  A    between atoms: _574  and  _576
REMARK  249  A    between atoms: _576  and  _577
REMARK  250  A    between atoms: _576  and  _579
REMARK  251  A    between atoms: _579  and  _580
REMARK  252  A    between atoms: _586  and  _588
REMARK  253  A    between atoms: _588  and  _589
REMARK  254  A    between atoms: _591  and  _593
REMARK  255  A    between atoms: _593  and  _594
REMARK  256  A    between atoms: _593  and  _596
REMARK  257  A    between atoms: _596  and  _597
REMARK  258  A    between atoms: _603  and  _605
REMARK  259  A    between atoms: _605  and  _606
REMARK  260  A    between atoms: _605  and  _608
REMARK  261  A    between atoms: _610  and  _612
REMARK  262  A    between atoms: _612  and  _613
REMARK  263  A    between atoms: _615  and  _617
REMARK  264  A    between atoms: _617  and  _618
REMARK  265  A    between atoms: _617  and  _620
REMARK  266  A    between atoms: _620  and  _621
REMARK  267  A    between atoms: _625  and  _626
REMARK  268  A    between atoms: _631  and  _633
REMARK  269  A    between atoms: _633  and  _634
REMARK  270  A    between atoms: _633  and  _636
REMARK  271  A    between atoms: _636  and  _637
REMARK  272  A    between atoms: _637  and  _638
REMARK  273  A    between atoms: _641  and  _643
REMARK  274  A    between atoms: _643  and  _644
REMARK  275  A    between atoms: _643  and  _646
REMARK  276  A    between atoms: _646  and  _647
REMARK  277  A    between atoms: _652  and  _653
REMARK  278  A    between atoms: _655  and  _657
REMARK  279  A    between atoms: _657  and  _658
REMARK  280  A    between atoms: _657  and  _660
REMARK  281  A    between atoms: _663  and  _665
REMARK  282  A    between atoms: _665  and  _666
REMARK  283  A    between atoms: _665  and  _668
REMARK  284  A    between atoms: _668  and  _669
REMARK  285  A    between atoms: _672  and  _674
REMARK  286  A    between atoms: _674  and  _675
REMARK  287  A    between atoms: _674  and  _677
REMARK  288  A    between atoms: _677  and  _678
REMARK  289  A    between atoms: _678  and  _679
REMARK  290  A    between atoms: _682  and  _684
REMARK  291  A    between atoms: _684  and  _685
REMARK  292  A    between atoms: _684  and  _687
REMARK  293  A    between atoms: _687  and  _688
REMARK  294  A    between atoms: _688  and  _689
REMARK  295  A    between atoms: _691  and  _693
REMARK  296  A    between atoms: _693  and  _694
REMARK  297  A    between atoms: _696  and  _698
REMARK  298  A    between atoms: _698  and  _699
REMARK  299  A    between atoms: _698  and  _701
REMARK  300  A    between atoms: _701  and  _702
REMARK  301  A    between atoms: _707  and  _708
REMARK  302  A    between atoms: _711  and  _712
REMARK  303  A    between atoms: _718  and  _719
REMARK  304  A    between atoms: _724  and  _726
REMARK  305  A    between atoms: _726  and  _727
REMARK  306  A    between atoms: _726  and  _729
REMARK  307  A    between atoms: _729  and  _730
REMARK  308  A    between atoms: _736  and  _738
REMARK  309  A    between atoms: _738  and  _739
REMARK  310  A    between atoms: _738  and  _741
REMARK  311  A    between atoms: _741  and  _742
REMARK  312  A    between atoms: _748  and  _750
REMARK  313  A    between atoms: _750  and  _751
REMARK  314  A    between atoms: _750  and  _753
REMARK  315  A    between atoms: _753  and  _754
REMARK  316  A    between atoms: _757  and  _759
REMARK  317  A    between atoms: _759  and  _760
REMARK  318  A    between atoms: _759  and  _762
REMARK  319  A    between atoms: _762  and  _763
REMARK  320  A    between atoms: _768  and  _770
REMARK  321  A    between atoms: _770  and  _771
REMARK  322  A    between atoms: _770  and  _773
REMARK  323  A    between atoms: _773  and  _774
REMARK  324  A    between atoms: _780  and  _782
REMARK  325  A    between atoms: _782  and  _783
REMARK  326  A    between atoms: _782  and  _785
REMARK  327  A    between atoms: _785  and  _786
REMARK  328  A    between atoms: _789  and  _791
REMARK  329  A    between atoms: _791  and  _792
REMARK  330  A    between atoms: _791  and  _794
REMARK  331  A    between atoms: _794  and  _795
REMARK  332  A    between atoms: _800  and  _801
REMARK                            x       y       z     vdW  Elec       q    Type
REMARK                         _______ _______ _______ _____ _____    ______ ____
ROOT
ATOM      1  C   HIS A   1      -4.238  11.943  10.060  0.00  0.00    +0.239 C 
ATOM      2  N   THR A   2      -4.630  13.186   9.770  0.00  0.00    -0.296 N 
ATOM      3  H   THR A   2      -4.537  13.934  10.486  0.00  0.00    +0.150 HD
ATOM      4  O   HIS A   1      -4.371  11.000   9.289  0.00  0.00    -0.274 OA
ENDROOT
BRANCH   1   5
ATOM      5  CA  HIS A   1      -3.597  11.700  11.424  0.00  0.00    +0.151 C 
BRANCH   5   6
ATOM      6  N   HIS A   1      -2.645  12.737  11.843  0.00  0.00    -0.238 NA
ATOM      7  H   HIS A   1      -2.830  13.267  12.719  0.00  0.00    +0.142 HD
ENDBRANCH   5   6
BRANCH   5   8
ATOM      8  CB  HIS A   1      -4.684  11.465  12.484  0.00  0.00    +0.074 C 
BRANCH   8   9
ATOM      9  CG  HIS A   1      -4.180  10.758  13.708  0.00  0.00    +0.082 A 
ATOM     10  ND1 HIS A   1      -4.965  10.539  14.818  0.00  0.00    -0.227 NA
ATOM     11  CE1 HIS A   1      -4.260   9.899  15.736  0.00  0.00    +0.199 A 
ATOM     12  NE2 HIS A   1      -3.038   9.715  15.268  0.00  0.00    -0.221 NA
ATOM     13  CD2 HIS A   1      -2.958  10.248  14.005  0.00  0.00    +0.115 A 
ENDBRANCH   8   9
ENDBRANCH   5   8
ENDBRANCH   1   5
BRANCH   2  14
ATOM     14  CA  THR A   2      -5.189  13.508   8.458  0.00  0.00    +0.164 C 
BRANCH  14  15
ATOM     15  CB  THR A   2      -5.874  14.896   8.408  0.00  0.00    +0.136 C 
ATOM     16  CG2 THR A   2      -6.853  15.044   9.541  0.00  0.00    +0.034 C 
BRANCH  15  17
ATOM     17  OG1 THR A   2      -4.892  15.932   8.481  0.00  0.00    -0.382 OA
ATOM     18  HG1 THR A   2      -4.388  15.848   9.329  0.00  0.00    +0.210 HD
ENDBRANCH  15  17
ENDBRANCH  14  15
BRANCH  14  19
ATOM     19  C   THR A   2      -4.130  13.391   7.372  0.00  0.00    +0.229 C 
ATOM     20  O   THR A   2      -4.421  12.953   6.265  0.00  0.00    -0.286 OA
ENDBRANCH  14  19
ENDBRANCH   2  14
TORSDOF 8
REMARK  Name = ../refined-set-2016/3agl/3agl_pocket.pdb
REMARK  332 active torsions:
REMARK  status: ('A' for Active; 'I' for Inactive)
REMARK    1  A    between atoms: _1  and  _3
REMARK    2  A    between atoms: _3  and  _4
REMARK    3  A    between atoms: _3  and  _6
REMARK    4  A    between atoms: _6  and  _7
REMARK    5  A    between atoms: _10  and  _12
REMARK    6  A    between atoms: _12  and  _13
REMARK    7  A    between atoms: _12  and  _15
REMARK    8  A    between atoms: _15  and  _16
REMARK    9  A    between atoms: _19  and  _21
REMARK   10  A    between atoms: _21  and  _22
REMARK   11  A    between atoms: _24  and  _26
REMARK   12  A    between atoms: _26  and  _27
REMARK   13  A    between atoms: _26  and  _29
REMARK   14  A    between atoms: _29  and  _30
REMARK   15  A    between atoms: _33  and  _35
REMARK   16  A    between atoms: _35  and  _36
REMARK   17  A    between atoms: _38  and  _40
REMARK   18  A    between atoms: _40  and  _41
REMARK   19  A    between atoms: _40  and  _43
REMARK   20  A    between atoms: _43  and  _44
REMARK   21  A    between atoms: _46  and  _48
REMARK   22  A    between atoms: _48  and  _49
REMARK   23  A    between atoms: _48  and  _51
REMARK   24  A    between atoms: _51  and  _52
REMARK   25  A    between atoms: _58  and  _60
REMARK   26  A    between atoms: _60  and  _61
REMARK   27  A    between atoms: _63  and  _65
REMARK   28  A    between atoms: _65  and  _66
REMARK   29  A    between atoms: _65  and  _68
REMARK   30  A    between atoms: _68  and  _69
REMARK   31  A    between atoms: _69  and  _70
REMARK   32  A    between atoms: _70  and  _71
REMARK   33  A    between atoms: _80  and  _82
REMARK   34  A    between atoms: _82  and  _83
REMARK   35  A    between atoms: _82  and  _85
REMARK   36  A    between atoms: _88  and  _90
REMARK   37  A    between atoms: _90  and  _91
REMARK   38  A    between atoms: _90  and  _93
REMARK   39  A    between atoms: _93  and  _94
REMARK   40  A    between atoms: _94  and  _95
REMARK   41  A    between atoms: _97  and  _99
REMARK   42  A    between atoms: _99  and  _100
REMARK   43  A    between atoms: _99  and  _102
REMARK   44  A    between atoms: _102  and  _103
REMARK   45  A    between atoms: _106  and  _108
REMARK   46  A    between atoms: _108  and  _109
REMARK   47  A    between atoms: _108  and  _111
REMARK   48  A    between atoms: _111  and  _112
REMARK   49  A    between atoms: _117  and  _118
REMARK   50  A    between atoms: _120  and  _122
REMARK   51  A    between atoms: _122  and  _123
REMARK   52  A    between atoms: _126  and  _128
REMARK   53  A    between atoms: _128  and  _129
REMARK   54  A    between atoms: _128  and  _131
REMARK   55  A    between atoms: _131  and  _132
REMARK   56  A    between atoms: _132  and  _133
REMARK   57  A    between atoms: _135  and  _137
REMARK   58  A    between atoms: _137  and  _138
REMARK   59  A    between atoms: _137  and  _140
REMARK   60  A    between atoms: _140  and  _141
REMARK   61  A    between atoms: _141  and  _142
REMARK   62  A    between atoms: _142  and  _143
REMARK   63  A    between atoms: _143  and  _144
REMARK   64  A    between atoms: _148  and  _150
REMARK   65  A    between atoms: _150  and  _151
REMARK   66  A    between atoms: _150  and  _153
REMARK   67  A    between atoms: _153  and  _154
REMARK   68  A    between atoms: _157  and  _159
REMARK   69  A    between atoms: _159  and  _160
REMARK   70  A    between atoms: _159  and  _162
REMARK   71  A    between atoms: _162  and  _163
REMARK   72  A    between atoms: _166  and  _168
REMARK   73  A    between atoms: _168  and  _169
REMARK   74  A    between atoms: _168  and  _171
REMARK   75  A    between atoms: _171  and  _172
REMARK   76  A    between atoms: _175  and  _177
REMARK   77  A    between atoms: _177  and  _178
REMARK   78  A    between atoms: _177  and  _180
REMARK   79  A    between atoms: _180  and  _181
REMARK   80  A    between atoms: _181  and  _182
REMARK   81  A    between atoms: _182  and  _183
REMARK   82  A    between atoms: _183  and  _184
REMARK   83  A    between atoms: _188  and  _190
REMARK   84  A    between atoms: _190  and  _191
REMARK   85  A    between atoms: _190  and  _193
REMARK   86  A    between atoms: _196  and  _198
REMARK   87  A    between atoms: _198  and  _199
REMARK   88  A    between atoms: _198  and  _201
REMARK   89  A    between atoms: _201  and  _202
REMARK   90  A    between atoms: _205  and  _207
REMARK   91  A    between atoms: _207  and  _208
REMARK   92  A    between atoms: _207  and  _210
REMARK   93  A    between atoms: _210  and  _211
REMARK   94  A    between atoms: _211  and  _212
REMARK   95  A    between atoms: _217  and  _219
REMARK   96  A    between atoms: _219  and  _220
REMARK   97  A    between atoms: _219  and  _222
REMARK   98  A    between atoms: _222  and  _223
REMARK   99  A    between atoms: _228  and  _230
REMARK  100  A    between atoms: _230  and  _231
REMARK  101  A    between atoms: _230  and  _233
REMARK  102  A    between atoms: _233  and  _234
REMARK  103  A    between atoms: _237  and  _239
REMARK  104  A    between atoms: _239  and  _240
REMARK  105  A    between atoms: _239  and  _242
REMARK  106  A    between atoms: _242  and  _243
REMARK  107  A    between atoms: _243  and  _244
REMARK  108  A    between atoms: _247  and  _249
REMARK  109  A    between atoms: _249  and  _250
REMARK  110  A    between atoms: _249  and  _252
REMARK  111  A    between atoms: _252  and  _253
REMARK  112  A    between atoms: _256  and  _258
REMARK  113  A    between atoms: _258  and  _259
REMARK  114  A    between atoms: _258  and  _261
REMARK  115  A    between atoms: _264  and  _266
REMARK  116  A    between atoms: _266  and  _267
REMARK  117  A    between atoms: _266  and  _269
REMARK  118  A    between atoms: _269  and  _270
REMARK  119  A    between atoms: _270  and  _271
REMARK  120  A    between atoms: _271  and  _272
REMARK  121  A    between atoms: _272  and  _273
REMARK  122  A    between atoms: _277  and  _279
REMARK  123  A    between atoms: _279  and  _280
REMARK  124  A    between atoms: _279  and  _282
REMARK  125  A    between atoms: _282  and  _283
REMARK  126  A    between atoms: _286  and  _288
REMARK  127  A    between atoms: _288  and  _289
REMARK  128  A    between atoms: _288  and  _291
REMARK  129  A    between atoms: _291  and  _292
REMARK  130  A    between atoms: _292  and  _293
REMARK  131  A    between atoms: _296  and  _298
REMARK  132  A    between atoms: _298  and  _299
REMARK  133  A    between atoms: _298  and  _301
REMARK  134  A    between atoms: _301  and  _302
REMARK  135  A    between atoms: _302  and  _303
REMARK  136  A    between atoms: _305  and  _307
REMARK  137  A    between atoms: _307  and  _308
REMARK  138  A    between atoms: _307  and  _310
REMARK  139  A    between atoms: _313  and  _315
REMARK  140  A    between atoms: _315  and  _316
REMARK  141  A    between atoms: _315  and  _318
REMARK  142  A    between atoms: _318  and  _319
REMARK  143  A    between atoms: _319  and  _320
REMARK  144  A    between atoms: _322  and  _324
REMARK  145  A    between atoms: _324  and  _325
REMARK  146  A    between atoms: _324  and  _327
REMARK  147  A    between atoms: _327  and  _328
REMARK  148  A    between atoms: _328  and  _329
REMARK  149  A    between atoms: _332  and  _334
REMARK  150  A    between atoms: _334  and  _335
REMARK  151  A    between atoms: _334  and  _337
REMARK  152  A    between atoms: _337  and  _338
REMARK  153  A    between atoms: _343  and  _344
REMARK  154  A    between atoms: _346  and  _348
REMARK  155  A    between atoms: _348  and  _349
REMARK  156  A    between atoms: _348  and  _351
REMARK  157  A    between atoms: _355  and  _356
REMARK  158  A    between atoms: _361  and  _363
REMARK  159  A    between atoms: _363  and  _364
REMARK  160  A    between atoms: _366  and  _368
REMARK  161  A    between atoms: _368  and  _369
REMARK  162  A    between atoms: _371  and  _373
REMARK  163  A    between atoms: _373  and  _374
REMARK  164  A    between atoms: _373  and  _376
REMARK  165  A    between atoms: _376  and  _377
REMARK  166  A    between atoms: _377  and  _378
REMARK  167  A    between atoms: _381  and  _383
REMARK  168  A    between atoms: _383  and  _384
REMARK  169  A    between atoms: _383  and  _386
REMARK  170  A    between atoms: _386  and  _387
REMARK  171  A    between atoms: _387  and  _388
REMARK  172  A    between atoms: _390  and  _392
REMARK  173  A    between atoms: _392  and  _393
REMARK  174  A    between atoms: _392  and  _395
REMARK  175  A    between atoms: _395  and  _396
REMARK  176  A    between atoms: _402  and  _404
REMARK  177  A    between atoms: _404  and  _405
REMARK  178  A    between atoms: _404  and  _407
REMARK  179  A    between atoms: _407  and  _408
REMARK  180  A    between atoms: _410  and  _412
REMARK  181  A    between atoms: _412  and  _413
REMARK  182  A    between atoms: _412  and  _415
REMARK  183  A    between atoms: _415  and  _416
REMARK  184  A    between atoms: _419  and  _421
REMARK  185  A    between atoms: _421  and  _422
REMARK  186  A    between atoms: _421  and  _424
REMARK  187  A    between atoms: _424  and  _425
REMARK  188  A    between atoms: _425  and  _426
REMARK  189  A    between atoms: _426  and  _427
REMARK  190  A    between atoms: _436  and  _438
REMARK  191  A    between atoms: _438  and  _439
REMARK  192  A    between atoms: _438  and  _441
REMARK  193  A    between atoms: _441  and  _442
REMARK  194  A    between atoms: _447  and  _448
REMARK  195  A    between atoms: _450  and  _452
REMARK  196  A    between atoms: _452  and  _453
REMARK  197  A    between atoms: _452  and  _455
REMARK  198  A    between atoms: _455  and  _456
REMARK  199  A    between atoms: _459  and  _461
REMARK  200  A    between atoms: _461  and  _462
REMARK  201  A    between atoms: _461  and  _464
REMARK  202  A    between atoms: _464  and  _465
REMARK  203  A    between atoms: _468  and  _470
REMARK  204  A    between atoms: _470  and  _471
REMARK  205  A    between atoms: _470  and  _473
REMARK  206  A    between atoms: _473  and  _474
REMARK  207  A    between atoms: _474  and  _475
REMARK  208  A    between atoms: _475  and  _476
REMARK  209  A    between atoms: _476  and  _477
REMARK  210  A    between atoms: _482  and  _483
REMARK  211  A    between atoms: _488  and  _490
REMARK  212  A    between atoms: _490  and  _491
REMARK  213  A    between atoms: _490  and  _493
REMARK  214  A    between atoms: _493  and  _494
REMARK  215  A    between atoms: _494  and  _495
REMARK  216  A    between atoms: _498  and  _500
REMARK  217  A    between atoms: _500  and  _501
REMARK  218  A    between atoms: _500  and  _503
REMARK  219  A    between atoms: _503  and  _504
REMARK  220  A    between atoms: _509  and  _511
REMARK  221  A    between atoms: _511  and  _512
REMARK  222  A    between atoms: _511  and  _514
REMARK  223  A    between atoms: _514  and  _515
REMARK  224  A    between atoms: _518  and  _520
REMARK  225  A    between atoms: _520  and  _521
REMARK  226  A    between atoms: _520  and  _523
REMARK  227  A    between atoms: _523  and  _524
REMARK  228  A    between atoms: _527  and  _529
REMARK  229  A    between atoms: _529  and  _530
REMARK  230  A    between atoms: _529  and  _532
REMARK  231  A    between atoms: _532  and  _533
REMARK  232  A    between atoms: _536  and  _538
REMARK  233  A    between atoms: _538  and  _539
REMARK  234  A    between atoms: _538  and  _541
REMARK  235  A    between atoms: _541  and  _542
REMARK  236  A    between atoms: _542  and  _543
REMARK  237  A    between atoms: _548  and  _550
REMARK  238  A    between atoms: _550  and  _551
REMARK  239  A    between atoms: _550  and  _553
REMARK  240  A    between atoms: _556  and  _558
REMARK  241  A    between atoms: _558  and  _559
REMARK  242  A    between atoms: _558  and  _561
REMARK  243  A    between atoms: _561  and  _562
REMARK  244  A    between atoms: _565  and  _567
REMARK  245  A    between atoms: _567  and  _568
REMARK  246  A    between atoms: _567  and  _570
REMARK  247  A    between atoms: _570  and  _571
REMARK  248  A    between atoms: _574  and  _576
REMARK  249  A    between atoms: _576  and  _577
REMARK  250  A    between atoms: _576  and  _579
REMARK  251  A    between atoms: _579  and  _580
REMARK  252  A    between atoms: _586  and  _588
REMARK  253  A    between atoms: _588  and  _589
REMARK  254  A    between atoms: _591  and  _593
REMARK  255  A    between atoms: _593  and  _594
REMARK  256  A    between atoms: _593  and  _596
REMARK  257  A    between atoms: _596  and  _597
REMARK  258  A    between atoms: _603  and  _605
REMARK  259  A    between atoms: _605  and  _606
REMARK  260  A    between atoms: _605  and  _608
REMARK  261  A    between atoms: _610  and  _612
REMARK  262  A    between atoms: _612  and  _613
REMARK  263  A    between atoms: _615  and  _617
REMARK  264  A    between atoms: _617  and  _618
REMARK  265  A    between atoms: _617  and  _620
REMARK  266  A    between atoms: _620  and  _621
REMARK  267  A    between atoms: _625  and  _626
REMARK  268  A    between atoms: _631  and  _633
REMARK  269  A    between atoms: _633  and  _634
REMARK  270  A    between atoms: _633  and  _636
REMARK  271  A    between atoms: _636  and  _637
REMARK  272  A    between atoms: _637  and  _638
REMARK  273  A    between atoms: _641  and  _643
REMARK  274  A    between atoms: _643  and  _644
REMARK  275  A    between atoms: _643  and  _646
REMARK  276  A    between atoms: _646  and  _647
REMARK  277  A    between atoms: _652  and  _653
REMARK  278  A    between atoms: _655  and  _657
REMARK  279  A    between atoms: _657  and  _658
REMARK  280  A    between atoms: _657  and  _660
REMARK  281  A    between atoms: _663  and  _665
REMARK  282  A    between atoms: _665  and  _666
REMARK  283  A    between atoms: _665  and  _668
REMARK  284  A    between atoms: _668  and  _669
REMARK  285  A    between atoms: _672  and  _674
REMARK  286  A    between atoms: _674  and  _675
REMARK  287  A    between atoms: _674  and  _677
REMARK  288  A    between atoms: _677  and  _678
REMARK  289  A    between atoms: _678  and  _679
REMARK  290  A    between atoms: _682  and  _684
REMARK  291  A    between atoms: _684  and  _685
REMARK  292  A    between atoms: _684  and  _687
REMARK  293  A    between atoms: _687  and  _688
REMARK  294  A    between atoms: _688  and  _689
REMARK  295  A    between atoms: _691  and  _693
REMARK  296  A    between atoms: _693  and  _694
REMARK  297  A    between atoms: _696  and  _698
REMARK  298  A    between atoms: _698  and  _699
REMARK  299  A    between atoms: _698  and  _701
REMARK  300  A    between atoms: _701  and  _702
REMARK  301  A    between atoms: _707  and  _708
REMARK  302  A    between atoms: _711  and  _712
REMARK  303  A    between atoms: _718  and  _719
REMARK  304  A    between atoms: _724  and  _726
REMARK  305  A    between atoms: _726  and  _727
REMARK  306  A    between atoms: _726  and  _729
REMARK  307  A    between atoms: _729  and  _730
REMARK  308  A    between atoms: _736  and  _738
REMARK  309  A    between atoms: _738  and  _739
REMARK  310  A    between atoms: _738  and  _741
REMARK  311  A    between atoms: _741  and  _742
REMARK  312  A    between atoms: _748  and  _750
REMARK  313  A    between atoms: _750  and  _751
REMARK  314  A    between atoms: _750  and  _753
REMARK  315  A    between atoms: _753  and  _754
REMARK  316  A    between atoms: _757  and  _759
REMARK  317  A    between atoms: _759  and  _760
REMARK  318  A    between atoms: _759  and  _762
REMARK  319  A    between atoms: _762  and  _763
REMARK  320  A    between atoms: _768  and  _770
REMARK  321  A    between atoms: _770  and  _771
REMARK  322  A    between atoms: _770  and  _773
REMARK  323  A    between atoms: _773  and  _774
REMARK  324  A    between atoms: _780  and  _782
REMARK  325  A    between atoms: _782  and  _783
REMARK  326  A    between atoms: _782  and  _785
REMARK  327  A    between atoms: _785  and  _786
REMARK  328  A    between atoms: _789  and  _791
REMARK  329  A    between atoms: _791  and  _792
REMARK  330  A    between atoms: _791  and  _794
REMARK  331  A    between atoms: _794  and  _795
REMARK  332  A    between atoms: _800  and  _801
REMARK                            x       y       z     vdW  Elec       q    Type
REMARK                         _______ _______ _______ _____ _____    ______ ____
ROOT
ATOM      1  CA  GLU A   1      -4.708   9.114   6.048  0.00  0.00    +0.134 C 
ENDROOT
BRANCH   1   2
ATOM      2  N   GLU A   1      -3.588   9.703   6.770  0.00  0.00    -0.239 NA
ATOM      3  H   GLU A   1      -3.765  10.423   7.499  0.00  0.00    +0.142 HD
ENDBRANCH   1   2
BRANCH   1   4
ATOM      4  C   GLU A   1      -4.596   9.371   4.539  0.00  0.00    +0.224 C 
ATOM      5  O   GLU A   1      -4.700   8.444   3.728  0.00  0.00    -0.287 OA
ENDBRANCH   1   4
BRANCH   1   6
ATOM      6  CB  GLU A   1      -6.051   9.587   6.608  0.00  0.00    +0.037 C 
BRANCH   6   7
ATOM      7  CG  GLU A   1      -7.207   9.323   5.634  0.00  0.00    +0.116 C 
BRANCH   7   8
ATOM      8  CD  GLU A   1      -8.590   9.515   6.228  0.00  0.00    +0.365 C 
ATOM      9  OE2 GLU A   1      -8.815  10.495   6.985  0.00  0.00    -0.246 OA
ATOM     10  OE1 GLU A   1      -9.465   8.674   5.914  0.00  0.00    -0.246 OA
ENDBRANCH   7   8
ENDBRANCH   6   7
ENDBRANCH   1   6
TORSDOF 5
REMARK  Name = ../refined-set-2016/3agl/3agl_pocket.pdb
REMARK  332 active torsions:
REMARK  status: ('A' for Active; 'I' for Inactive)
REMARK    1  A    between atoms: _1  and  _3
REMARK    2  A    between atoms: _3  and  _4
REMARK    3  A    between atoms: _3  and  _6
REMARK    4  A    between atoms: _6  and  _7
REMARK    5  A    between atoms: _10  and  _12
REMARK    6  A    between atoms: _12  and  _13
REMARK    7  A    between atoms: _12  and  _15
REMARK    8  A    between atoms: _15  and  _16
REMARK    9  A    between atoms: _19  and  _21
REMARK   10  A    between atoms: _21  and  _22
REMARK   11  A    between atoms: _24  and  _26
REMARK   12  A    between atoms: _26  and  _27
REMARK   13  A    between atoms: _26  and  _29
REMARK   14  A    between atoms: _29  and  _30
REMARK   15  A    between atoms: _33  and  _35
REMARK   16  A    between atoms: _35  and  _36
REMARK   17  A    between atoms: _38  and  _40
REMARK   18  A    between atoms: _40  and  _41
REMARK   19  A    between atoms: _40  and  _43
REMARK   20  A    between atoms: _43  and  _44
REMARK   21  A    between atoms: _46  and  _48
REMARK   22  A    between atoms: _48  and  _49
REMARK   23  A    between atoms: _48  and  _51
REMARK   24  A    between atoms: _51  and  _52
REMARK   25  A    between atoms: _58  and  _60
REMARK   26  A    between atoms: _60  and  _61
REMARK   27  A    between atoms: _63  and  _65
REMARK   28  A    between atoms: _65  and  _66
REMARK   29  A    between atoms: _65  and  _68
REMARK   30  A    between atoms: _68  and  _69
REMARK   31  A    between atoms: _69  and  _70
REMARK   32  A    between atoms: _70  and  _71
REMARK   33  A    between atoms: _80  and  _82
REMARK   34  A    between atoms: _82  and  _83
REMARK   35  A    between atoms: _82  and  _85
REMARK   36  A    between atoms: _88  and  _90
REMARK   37  A    between atoms: _90  and  _91
REMARK   38  A    between atoms: _90  and  _93
REMARK   39  A    between atoms: _93  and  _94
REMARK   40  A    between atoms: _94  and  _95
REMARK   41  A    between atoms: _97  and  _99
REMARK   42  A    between atoms: _99  and  _100
REMARK   43  A    between atoms: _99  and  _102
REMARK   44  A    between atoms: _102  and  _103
REMARK   45  A    between atoms: _106  and  _108
REMARK   46  A    between atoms: _108  and  _109
REMARK   47  A    between atoms: _108  and  _111
REMARK   48  A    between atoms: _111  and  _112
REMARK   49  A    between atoms: _117  and  _118
REMARK   50  A    between atoms: _120  and  _122
REMARK   51  A    between atoms: _122  and  _123
REMARK   52  A    between atoms: _126  and  _128
REMARK   53  A    between atoms: _128  and  _129
REMARK   54  A    between atoms: _128  and  _131
REMARK   55  A    between atoms: _131  and  _132
REMARK   56  A    between atoms: _132  and  _133
REMARK   57  A    between atoms: _135  and  _137
REMARK   58  A    between atoms: _137  and  _138
REMARK   59  A    between atoms: _137  and  _140
REMARK   60  A    between atoms: _140  and  _141
REMARK   61  A    between atoms: _141  and  _142
REMARK   62  A    between atoms: _142  and  _143
REMARK   63  A    between atoms: _143  and  _144
REMARK   64  A    between atoms: _148  and  _150
REMARK   65  A    between atoms: _150  and  _151
REMARK   66  A    between atoms: _150  and  _153
REMARK   67  A    between atoms: _153  and  _154
REMARK   68  A    between atoms: _157  and  _159
REMARK   69  A    between atoms: _159  and  _160
REMARK   70  A    between atoms: _159  and  _162
REMARK   71  A    between atoms: _162  and  _163
REMARK   72  A    between atoms: _166  and  _168
REMARK   73  A    between atoms: _168  and  _169
REMARK   74  A    between atoms: _168  and  _171
REMARK   75  A    between atoms: _171  and  _172
REMARK   76  A    between atoms: _175  and  _177
REMARK   77  A    between atoms: _177  and  _178
REMARK   78  A    between atoms: _177  and  _180
REMARK   79  A    between atoms: _180  and  _181
REMARK   80  A    between atoms: _181  and  _182
REMARK   81  A    between atoms: _182  and  _183
REMARK   82  A    between atoms: _183  and  _184
REMARK   83  A    between atoms: _188  and  _190
REMARK   84  A    between atoms: _190  and  _191
REMARK   85  A    between atoms: _190  and  _193
REMARK   86  A    between atoms: _196  and  _198
REMARK   87  A    between atoms: _198  and  _199
REMARK   88  A    between atoms: _198  and  _201
REMARK   89  A    between atoms: _201  and  _202
REMARK   90  A    between atoms: _205  and  _207
REMARK   91  A    between atoms: _207  and  _208
REMARK   92  A    between atoms: _207  and  _210
REMARK   93  A    between atoms: _210  and  _211
REMARK   94  A    between atoms: _211  and  _212
REMARK   95  A    between atoms: _217  and  _219
REMARK   96  A    between atoms: _219  and  _220
REMARK   97  A    between atoms: _219  and  _222
REMARK   98  A    between atoms: _222  and  _223
REMARK   99  A    between atoms: _228  and  _230
REMARK  100  A    between atoms: _230  and  _231
REMARK  101  A    between atoms: _230  and  _233
REMARK  102  A    between atoms: _233  and  _234
REMARK  103  A    between atoms: _237  and  _239
REMARK  104  A    between atoms: _239  and  _240
REMARK  105  A    between atoms: _239  and  _242
REMARK  106  A    between atoms: _242  and  _243
REMARK  107  A    between atoms: _243  and  _244
REMARK  108  A    between atoms: _247  and  _249
REMARK  109  A    between atoms: _249  and  _250
REMARK  110  A    between atoms: _249  and  _252
REMARK  111  A    between atoms: _252  and  _253
REMARK  112  A    between atoms: _256  and  _258
REMARK  113  A    between atoms: _258  and  _259
REMARK  114  A    between atoms: _258  and  _261
REMARK  115  A    between atoms: _264  and  _266
REMARK  116  A    between atoms: _266  and  _267
REMARK  117  A    between atoms: _266  and  _269
REMARK  118  A    between atoms: _269  and  _270
REMARK  119  A    between atoms: _270  and  _271
REMARK  120  A    between atoms: _271  and  _272
REMARK  121  A    between atoms: _272  and  _273
REMARK  122  A    between atoms: _277  and  _279
REMARK  123  A    between atoms: _279  and  _280
REMARK  124  A    between atoms: _279  and  _282
REMARK  125  A    between atoms: _282  and  _283
REMARK  126  A    between atoms: _286  and  _288
REMARK  127  A    between atoms: _288  and  _289
REMARK  128  A    between atoms: _288  and  _291
REMARK  129  A    between atoms: _291  and  _292
REMARK  130  A    between atoms: _292  and  _293
REMARK  131  A    between atoms: _296  and  _298
REMARK  132  A    between atoms: _298  and  _299
REMARK  133  A    between atoms: _298  and  _301
REMARK  134  A    between atoms: _301  and  _302
REMARK  135  A    between atoms: _302  and  _303
REMARK  136  A    between atoms: _305  and  _307
REMARK  137  A    between atoms: _307  and  _308
REMARK  138  A    between atoms: _307  and  _310
REMARK  139  A    between atoms: _313  and  _315
REMARK  140  A    between atoms: _315  and  _316
REMARK  141  A    between atoms: _315  and  _318
REMARK  142  A    between atoms: _318  and  _319
REMARK  143  A    between atoms: _319  and  _320
REMARK  144  A    between atoms: _322  and  _324
REMARK  145  A    between atoms: _324  and  _325
REMARK  146  A    between atoms: _324  and  _327
REMARK  147  A    between atoms: _327  and  _328
REMARK  148  A    between atoms: _328  and  _329
REMARK  149  A    between atoms: _332  and  _334
REMARK  150  A    between atoms: _334  and  _335
REMARK  151  A    between atoms: _334  and  _337
REMARK  152  A    between atoms: _337  and  _338
REMARK  153  A    between atoms: _343  and  _344
REMARK  154  A    between atoms: _346  and  _348
REMARK  155  A    between atoms: _348  and  _349
REMARK  156  A    between atoms: _348  and  _351
REMARK  157  A    between atoms: _355  and  _356
REMARK  158  A    between atoms: _361  and  _363
REMARK  159  A    between atoms: _363  and  _364
REMARK  160  A    between atoms: _366  and  _368
REMARK  161  A    between atoms: _368  and  _369
REMARK  162  A    between atoms: _371  and  _373
REMARK  163  A    between atoms: _373  and  _374
REMARK  164  A    between atoms: _373  and  _376
REMARK  165  A    between atoms: _376  and  _377
REMARK  166  A    between atoms: _377  and  _378
REMARK  167  A    between atoms: _381  and  _383
REMARK  168  A    between atoms: _383  and  _384
REMARK  169  A    between atoms: _383  and  _386
REMARK  170  A    between atoms: _386  and  _387
REMARK  171  A    between atoms: _387  and  _388
REMARK  172  A    between atoms: _390  and  _392
REMARK  173  A    between atoms: _392  and  _393
REMARK  174  A    between atoms: _392  and  _395
REMARK  175  A    between atoms: _395  and  _396
REMARK  176  A    between atoms: _402  and  _404
REMARK  177  A    between atoms: _404  and  _405
REMARK  178  A    between atoms: _404  and  _407
REMARK  179  A    between atoms: _407  and  _408
REMARK  180  A    between atoms: _410  and  _412
REMARK  181  A    between atoms: _412  and  _413
REMARK  182  A    between atoms: _412  and  _415
REMARK  183  A    between atoms: _415  and  _416
REMARK  184  A    between atoms: _419  and  _421
REMARK  185  A    between atoms: _421  and  _422
REMARK  186  A    between atoms: _421  and  _424
REMARK  187  A    between atoms: _424  and  _425
REMARK  188  A    between atoms: _425  and  _426
REMARK  189  A    between atoms: _426  and  _427
REMARK  190  A    between atoms: _436  and  _438
REMARK  191  A    between atoms: _438  and  _439
REMARK  192  A    between atoms: _438  and  _441
REMARK  193  A    between atoms: _441  and  _442
REMARK  194  A    between atoms: _447  and  _448
REMARK  195  A    between atoms: _450  and  _452
REMARK  196  A    between atoms: _452  and  _453
REMARK  197  A    between atoms: _452  and  _455
REMARK  198  A    between atoms: _455  and  _456
REMARK  199  A    between atoms: _459  and  _461
REMARK  200  A    between atoms: _461  and  _462
REMARK  201  A    between atoms: _461  and  _464
REMARK  202  A    between atoms: _464  and  _465
REMARK  203  A    between atoms: _468  and  _470
REMARK  204  A    between atoms: _470  and  _471
REMARK  205  A    between atoms: _470  and  _473
REMARK  206  A    between atoms: _473  and  _474
REMARK  207  A    between atoms: _474  and  _475
REMARK  208  A    between atoms: _475  and  _476
REMARK  209  A    between atoms: _476  and  _477
REMARK  210  A    between atoms: _482  and  _483
REMARK  211  A    between atoms: _488  and  _490
REMARK  212  A    between atoms: _490  and  _491
REMARK  213  A    between atoms: _490  and  _493
REMARK  214  A    between atoms: _493  and  _494
REMARK  215  A    between atoms: _494  and  _495
REMARK  216  A    between atoms: _498  and  _500
REMARK  217  A    between atoms: _500  and  _501
REMARK  218  A    between atoms: _500  and  _503
REMARK  219  A    between atoms: _503  and  _504
REMARK  220  A    between atoms: _509  and  _511
REMARK  221  A    between atoms: _511  and  _512
REMARK  222  A    between atoms: _511  and  _514
REMARK  223  A    between atoms: _514  and  _515
REMARK  224  A    between atoms: _518  and  _520
REMARK  225  A    between atoms: _520  and  _521
REMARK  226  A    between atoms: _520  and  _523
REMARK  227  A    between atoms: _523  and  _524
REMARK  228  A    between atoms: _527  and  _529
REMARK  229  A    between atoms: _529  and  _530
REMARK  230  A    between atoms: _529  and  _532
REMARK  231  A    between atoms: _532  and  _533
REMARK  232  A    between atoms: _536  and  _538
REMARK  233  A    between atoms: _538  and  _539
REMARK  234  A    between atoms: _538  and  _541
REMARK  235  A    between atoms: _541  and  _542
REMARK  236  A    between atoms: _542  and  _543
REMARK  237  A    between atoms: _548  and  _550
REMARK  238  A    between atoms: _550  and  _551
REMARK  239  A    between atoms: _550  and  _553
REMARK  240  A    between atoms: _556  and  _558
REMARK  241  A    between atoms: _558  and  _559
REMARK  242  A    between atoms: _558  and  _561
REMARK  243  A    between atoms: _561  and  _562
REMARK  244  A    between atoms: _565  and  _567
REMARK  245  A    between atoms: _567  and  _568
REMARK  246  A    between atoms: _567  and  _570
REMARK  247  A    between atoms: _570  and  _571
REMARK  248  A    between atoms: _574  and  _576
REMARK  249  A    between atoms: _576  and  _577
REMARK  250  A    between atoms: _576  and  _579
REMARK  251  A    between atoms: _579  and  _580
REMARK  252  A    between atoms: _586  and  _588
REMARK  253  A    between atoms: _588  and  _589
REMARK  254  A    between atoms: _591  and  _593
REMARK  255  A    between atoms: _593  and  _594
REMARK  256  A    between atoms: _593  and  _596
REMARK  257  A    between atoms: _596  and  _597
REMARK  258  A    between atoms: _603  and  _605
REMARK  259  A    between atoms: _605  and  _606
REMARK  260  A    between atoms: _605  and  _608
REMARK  261  A    between atoms: _610  and  _612
REMARK  262  A    between atoms: _612  and  _613
REMARK  263  A    between atoms: _615  and  _617
REMARK  264  A    between atoms: _617  and  _618
REMARK  265  A    between atoms: _617  and  _620
REMARK  266  A    between atoms: _620  and  _621
REMARK  267  A    between atoms: _625  and  _626
REMARK  268  A    between atoms: _631  and  _633
REMARK  269  A    between atoms: _633  and  _634
REMARK  270  A    between atoms: _633  and  _636
REMARK  271  A    between atoms: _636  and  _637
REMARK  272  A    between atoms: _637  and  _638
REMARK  273  A    between atoms: _641  and  _643
REMARK  274  A    between atoms: _643  and  _644
REMARK  275  A    between atoms: _643  and  _646
REMARK  276  A    between atoms: _646  and  _647
REMARK  277  A    between atoms: _652  and  _653
REMARK  278  A    between atoms: _655  and  _657
REMARK  279  A    between atoms: _657  and  _658
REMARK  280  A    between atoms: _657  and  _660
REMARK  281  A    between atoms: _663  and  _665
REMARK  282  A    between atoms: _665  and  _666
REMARK  283  A    between atoms: _665  and  _668
REMARK  284  A    between atoms: _668  and  _669
REMARK  285  A    between atoms: _672  and  _674
REMARK  286  A    between atoms: _674  and  _675
REMARK  287  A    between atoms: _674  and  _677
REMARK  288  A    between atoms: _677  and  _678
REMARK  289  A    between atoms: _678  and  _679
REMARK  290  A    between atoms: _682  and  _684
REMARK  291  A    between atoms: _684  and  _685
REMARK  292  A    between atoms: _684  and  _687
REMARK  293  A    between atoms: _687  and  _688
REMARK  294  A    between atoms: _688  and  _689
REMARK  295  A    between atoms: _691  and  _693
REMARK  296  A    between atoms: _693  and  _694
REMARK  297  A    between atoms: _696  and  _698
REMARK  298  A    between atoms: _698  and  _699
REMARK  299  A    between atoms: _698  and  _701
REMARK  300  A    between atoms: _701  and  _702
REMARK  301  A    between atoms: _707  and  _708
REMARK  302  A    between atoms: _711  and  _712
REMARK  303  A    between atoms: _718  and  _719
REMARK  304  A    between atoms: _724  and  _726
REMARK  305  A    between atoms: _726  and  _727
REMARK  306  A    between atoms: _726  and  _729
REMARK  307  A    between atoms: _729  and  _730
REMARK  308  A    between atoms: _736  and  _738
REMARK  309  A    between atoms: _738  and  _739
REMARK  310  A    between atoms: _738  and  _741
REMARK  311  A    between atoms: _741  and  _742
REMARK  312  A    between atoms: _748  and  _750
REMARK  313  A    between atoms: _750  and  _751
REMARK  314  A    between atoms: _750  and  _753
REMARK  315  A    between atoms: _753  and  _754
REMARK  316  A    between atoms: _757  and  _759
REMARK  317  A    between atoms: _759  and  _760
REMARK  318  A    between atoms: _759  and  _762
REMARK  319  A    between atoms: _762  and  _763
REMARK  320  A    between atoms: _768  and  _770
REMARK  321  A    between atoms: _770  and  _771
REMARK  322  A    between atoms: _770  and  _773
REMARK  323  A    between atoms: _773  and  _774
REMARK  324  A    between atoms: _780  and  _782
REMARK  325  A    between atoms: _782  and  _783
REMARK  326  A    between atoms: _782  and  _785
REMARK  327  A    between atoms: _785  and  _786
REMARK  328  A    between atoms: _789  and  _791
REMARK  329  A    between atoms: _791  and  _792
REMARK  330  A    between atoms: _791  and  _794
REMARK  331  A    between atoms: _794  and  _795
REMARK  332  A    between atoms: _800  and  _801
REMARK                            x       y       z     vdW  Elec       q    Type
REMARK                         _______ _______ _______ _____ _____    ______ ____
ROOT
ATOM      1  CA  LEU A   1      -4.703   5.903   1.046  0.00  0.00    +0.133 C 
ENDROOT
BRANCH   1   2
ATOM      2  N   LEU A   1      -3.650   6.271   1.998  0.00  0.00    -0.239 NA
ATOM      3  H   LEU A   1      -3.836   6.993   2.723  0.00  0.00    +0.142 HD
ENDBRANCH   1   2
BRANCH   1   4
ATOM      4  C   LEU A   1      -4.319   6.081  -0.407  0.00  0.00    +0.224 C 
ATOM      5  O   LEU A   1      -4.729   5.291  -1.240  0.00  0.00    -0.287 OA
ENDBRANCH   1   4
BRANCH   1   6
ATOM      6  CB  LEU A   1      -6.060   6.585   1.334  0.00  0.00    +0.025 C 
BRANCH   6   7
ATOM      7  CG  LEU A   1      -7.121   5.669   1.963  0.00  0.00    +0.002 C 
ATOM      8  CD2 LEU A   1      -8.473   6.380   2.094  0.00  0.00    +0.000 C 
ATOM      9  CD1 LEU A   1      -7.295   4.373   1.183  0.00  0.00    +0.000 C 
ENDBRANCH   6   7
ENDBRANCH   1   6
TORSDOF 4
REMARK  Name = ../refined-set-2016/3agl/3agl_pocket.pdb
REMARK  332 active torsions:
REMARK  status: ('A' for Active; 'I' for Inactive)
REMARK    1  A    between atoms: _1  and  _3
REMARK    2  A    between atoms: _3  and  _4
REMARK    3  A    between atoms: _3  and  _6
REMARK    4  A    between atoms: _6  and  _7
REMARK    5  A    between atoms: _10  and  _12
REMARK    6  A    between atoms: _12  and  _13
REMARK    7  A    between atoms: _12  and  _15
REMARK    8  A    between atoms: _15  and  _16
REMARK    9  A    between atoms: _19  and  _21
REMARK   10  A    between atoms: _21  and  _22
REMARK   11  A    between atoms: _24  and  _26
REMARK   12  A    between atoms: _26  and  _27
REMARK   13  A    between atoms: _26  and  _29
REMARK   14  A    between atoms: _29  and  _30
REMARK   15  A    between atoms: _33  and  _35
REMARK   16  A    between atoms: _35  and  _36
REMARK   17  A    between atoms: _38  and  _40
REMARK   18  A    between atoms: _40  and  _41
REMARK   19  A    between atoms: _40  and  _43
REMARK   20  A    between atoms: _43  and  _44
REMARK   21  A    between atoms: _46  and  _48
REMARK   22  A    between atoms: _48  and  _49
REMARK   23  A    between atoms: _48  and  _51
REMARK   24  A    between atoms: _51  and  _52
REMARK   25  A    between atoms: _58  and  _60
REMARK   26  A    between atoms: _60  and  _61
REMARK   27  A    between atoms: _63  and  _65
REMARK   28  A    between atoms: _65  and  _66
REMARK   29  A    between atoms: _65  and  _68
REMARK   30  A    between atoms: _68  and  _69
REMARK   31  A    between atoms: _69  and  _70
REMARK   32  A    between atoms: _70  and  _71
REMARK   33  A    between atoms: _80  and  _82
REMARK   34  A    between atoms: _82  and  _83
REMARK   35  A    between atoms: _82  and  _85
REMARK   36  A    between atoms: _88  and  _90
REMARK   37  A    between atoms: _90  and  _91
REMARK   38  A    between atoms: _90  and  _93
REMARK   39  A    between atoms: _93  and  _94
REMARK   40  A    between atoms: _94  and  _95
REMARK   41  A    between atoms: _97  and  _99
REMARK   42  A    between atoms: _99  and  _100
REMARK   43  A    between atoms: _99  and  _102
REMARK   44  A    between atoms: _102  and  _103
REMARK   45  A    between atoms: _106  and  _108
REMARK   46  A    between atoms: _108  and  _109
REMARK   47  A    between atoms: _108  and  _111
REMARK   48  A    between atoms: _111  and  _112
REMARK   49  A    between atoms: _117  and  _118
REMARK   50  A    between atoms: _120  and  _122
REMARK   51  A    between atoms: _122  and  _123
REMARK   52  A    between atoms: _126  and  _128
REMARK   53  A    between atoms: _128  and  _129
REMARK   54  A    between atoms: _128  and  _131
REMARK   55  A    between atoms: _131  and  _132
REMARK   56  A    between atoms: _132  and  _133
REMARK   57  A    between atoms: _135  and  _137
REMARK   58  A    between atoms: _137  and  _138
REMARK   59  A    between atoms: _137  and  _140
REMARK   60  A    between atoms: _140  and  _141
REMARK   61  A    between atoms: _141  and  _142
REMARK   62  A    between atoms: _142  and  _143
REMARK   63  A    between atoms: _143  and  _144
REMARK   64  A    between atoms: _148  and  _150
REMARK   65  A    between atoms: _150  and  _151
REMARK   66  A    between atoms: _150  and  _153
REMARK   67  A    between atoms: _153  and  _154
REMARK   68  A    between atoms: _157  and  _159
REMARK   69  A    between atoms: _159  and  _160
REMARK   70  A    between atoms: _159  and  _162
REMARK   71  A    between atoms: _162  and  _163
REMARK   72  A    between atoms: _166  and  _168
REMARK   73  A    between atoms: _168  and  _169
REMARK   74  A    between atoms: _168  and  _171
REMARK   75  A    between atoms: _171  and  _172
REMARK   76  A    between atoms: _175  and  _177
REMARK   77  A    between atoms: _177  and  _178
REMARK   78  A    between atoms: _177  and  _180
REMARK   79  A    between atoms: _180  and  _181
REMARK   80  A    between atoms: _181  and  _182
REMARK   81  A    between atoms: _182  and  _183
REMARK   82  A    between atoms: _183  and  _184
REMARK   83  A    between atoms: _188  and  _190
REMARK   84  A    between atoms: _190  and  _191
REMARK   85  A    between atoms: _190  and  _193
REMARK   86  A    between atoms: _196  and  _198
REMARK   87  A    between atoms: _198  and  _199
REMARK   88  A    between atoms: _198  and  _201
REMARK   89  A    between atoms: _201  and  _202
REMARK   90  A    between atoms: _205  and  _207
REMARK   91  A    between atoms: _207  and  _208
REMARK   92  A    between atoms: _207  and  _210
REMARK   93  A    between atoms: _210  and  _211
REMARK   94  A    between atoms: _211  and  _212
REMARK   95  A    between atoms: _217  and  _219
REMARK   96  A    between atoms: _219  and  _220
REMARK   97  A    between atoms: _219  and  _222
REMARK   98  A    between atoms: _222  and  _223
REMARK   99  A    between atoms: _228  and  _230
REMARK  100  A    between atoms: _230  and  _231
REMARK  101  A    between atoms: _230  and  _233
REMARK  102  A    between atoms: _233  and  _234
REMARK  103  A    between atoms: _237  and  _239
REMARK  104  A    between atoms: _239  and  _240
REMARK  105  A    between atoms: _239  and  _242
REMARK  106  A    between atoms: _242  and  _243
REMARK  107  A    between atoms: _243  and  _244
REMARK  108  A    between atoms: _247  and  _249
REMARK  109  A    between atoms: _249  and  _250
REMARK  110  A    between atoms: _249  and  _252
REMARK  111  A    between atoms: _252  and  _253
REMARK  112  A    between atoms: _256  and  _258
REMARK  113  A    between atoms: _258  and  _259
REMARK  114  A    between atoms: _258  and  _261
REMARK  115  A    between atoms: _264  and  _266
REMARK  116  A    between atoms: _266  and  _267
REMARK  117  A    between atoms: _266  and  _269
REMARK  118  A    between atoms: _269  and  _270
REMARK  119  A    between atoms: _270  and  _271
REMARK  120  A    between atoms: _271  and  _272
REMARK  121  A    between atoms: _272  and  _273
REMARK  122  A    between atoms: _277  and  _279
REMARK  123  A    between atoms: _279  and  _280
REMARK  124  A    between atoms: _279  and  _282
REMARK  125  A    between atoms: _282  and  _283
REMARK  126  A    between atoms: _286  and  _288
REMARK  127  A    between atoms: _288  and  _289
REMARK  128  A    between atoms: _288  and  _291
REMARK  129  A    between atoms: _291  and  _292
REMARK  130  A    between atoms: _292  and  _293
REMARK  131  A    between atoms: _296  and  _298
REMARK  132  A    between atoms: _298  and  _299
REMARK  133  A    between atoms: _298  and  _301
REMARK  134  A    between atoms: _301  and  _302
REMARK  135  A    between atoms: _302  and  _303
REMARK  136  A    between atoms: _305  and  _307
REMARK  137  A    between atoms: _307  and  _308
REMARK  138  A    between atoms: _307  and  _310
REMARK  139  A    between atoms: _313  and  _315
REMARK  140  A    between atoms: _315  and  _316
REMARK  141  A    between atoms: _315  and  _318
REMARK  142  A    between atoms: _318  and  _319
REMARK  143  A    between atoms: _319  and  _320
REMARK  144  A    between atoms: _322  and  _324
REMARK  145  A    between atoms: _324  and  _325
REMARK  146  A    between atoms: _324  and  _327
REMARK  147  A    between atoms: _327  and  _328
REMARK  148  A    between atoms: _328  and  _329
REMARK  149  A    between atoms: _332  and  _334
REMARK  150  A    between atoms: _334  and  _335
REMARK  151  A    between atoms: _334  and  _337
REMARK  152  A    between atoms: _337  and  _338
REMARK  153  A    between atoms: _343  and  _344
REMARK  154  A    between atoms: _346  and  _348
REMARK  155  A    between atoms: _348  and  _349
REMARK  156  A    between atoms: _348  and  _351
REMARK  157  A    between atoms: _355  and  _356
REMARK  158  A    between atoms: _361  and  _363
REMARK  159  A    between atoms: _363  and  _364
REMARK  160  A    between atoms: _366  and  _368
REMARK  161  A    between atoms: _368  and  _369
REMARK  162  A    between atoms: _371  and  _373
REMARK  163  A    between atoms: _373  and  _374
REMARK  164  A    between atoms: _373  and  _376
REMARK  165  A    between atoms: _376  and  _377
REMARK  166  A    between atoms: _377  and  _378
REMARK  167  A    between atoms: _381  and  _383
REMARK  168  A    between atoms: _383  and  _384
REMARK  169  A    between atoms: _383  and  _386
REMARK  170  A    between atoms: _386  and  _387
REMARK  171  A    between atoms: _387  and  _388
REMARK  172  A    between atoms: _390  and  _392
REMARK  173  A    between atoms: _392  and  _393
REMARK  174  A    between atoms: _392  and  _395
REMARK  175  A    between atoms: _395  and  _396
REMARK  176  A    between atoms: _402  and  _404
REMARK  177  A    between atoms: _404  and  _405
REMARK  178  A    between atoms: _404  and  _407
REMARK  179  A    between atoms: _407  and  _408
REMARK  180  A    between atoms: _410  and  _412
REMARK  181  A    between atoms: _412  and  _413
REMARK  182  A    between atoms: _412  and  _415
REMARK  183  A    between atoms: _415  and  _416
REMARK  184  A    between atoms: _419  and  _421
REMARK  185  A    between atoms: _421  and  _422
REMARK  186  A    between atoms: _421  and  _424
REMARK  187  A    between atoms: _424  and  _425
REMARK  188  A    between atoms: _425  and  _426
REMARK  189  A    between atoms: _426  and  _427
REMARK  190  A    between atoms: _436  and  _438
REMARK  191  A    between atoms: _438  and  _439
REMARK  192  A    between atoms: _438  and  _441
REMARK  193  A    between atoms: _441  and  _442
REMARK  194  A    between atoms: _447  and  _448
REMARK  195  A    between atoms: _450  and  _452
REMARK  196  A    between atoms: _452  and  _453
REMARK  197  A    between atoms: _452  and  _455
REMARK  198  A    between atoms: _455  and  _456
REMARK  199  A    between atoms: _459  and  _461
REMARK  200  A    between atoms: _461  and  _462
REMARK  201  A    between atoms: _461  and  _464
REMARK  202  A    between atoms: _464  and  _465
REMARK  203  A    between atoms: _468  and  _470
REMARK  204  A    between atoms: _470  and  _471
REMARK  205  A    between atoms: _470  and  _473
REMARK  206  A    between atoms: _473  and  _474
REMARK  207  A    between atoms: _474  and  _475
REMARK  208  A    between atoms: _475  and  _476
REMARK  209  A    between atoms: _476  and  _477
REMARK  210  A    between atoms: _482  and  _483
REMARK  211  A    between atoms: _488  and  _490
REMARK  212  A    between atoms: _490  and  _491
REMARK  213  A    between atoms: _490  and  _493
REMARK  214  A    between atoms: _493  and  _494
REMARK  215  A    between atoms: _494  and  _495
REMARK  216  A    between atoms: _498  and  _500
REMARK  217  A    between atoms: _500  and  _501
REMARK  218  A    between atoms: _500  and  _503
REMARK  219  A    between atoms: _503  and  _504
REMARK  220  A    between atoms: _509  and  _511
REMARK  221  A    between atoms: _511  and  _512
REMARK  222  A    between atoms: _511  and  _514
REMARK  223  A    between atoms: _514  and  _515
REMARK  224  A    between atoms: _518  and  _520
REMARK  225  A    between atoms: _520  and  _521
REMARK  226  A    between atoms: _520  and  _523
REMARK  227  A    between atoms: _523  and  _524
REMARK  228  A    between atoms: _527  and  _529
REMARK  229  A    between atoms: _529  and  _530
REMARK  230  A    between atoms: _529  and  _532
REMARK  231  A    between atoms: _532  and  _533
REMARK  232  A    between atoms: _536  and  _538
REMARK  233  A    between atoms: _538  and  _539
REMARK  234  A    between atoms: _538  and  _541
REMARK  235  A    between atoms: _541  and  _542
REMARK  236  A    between atoms: _542  and  _543
REMARK  237  A    between atoms: _548  and  _550
REMARK  238  A    between atoms: _550  and  _551
REMARK  239  A    between atoms: _550  and  _553
REMARK  240  A    between atoms: _556  and  _558
REMARK  241  A    between atoms: _558  and  _559
REMARK  242  A    between atoms: _558  and  _561
REMARK  243  A    between atoms: _561  and  _562
REMARK  244  A    between atoms: _565  and  _567
REMARK  245  A    between atoms: _567  and  _568
REMARK  246  A    between atoms: _567  and  _570
REMARK  247  A    between atoms: _570  and  _571
REMARK  248  A    between atoms: _574  and  _576
REMARK  249  A    between atoms: _576  and  _577
REMARK  250  A    between atoms: _576  and  _579
REMARK  251  A    between atoms: _579  and  _580
REMARK  252  A    between atoms: _586  and  _588
REMARK  253  A    between atoms: _588  and  _589
REMARK  254  A    between atoms: _591  and  _593
REMARK  255  A    between atoms: _593  and  _594
REMARK  256  A    between atoms: _593  and  _596
REMARK  257  A    between atoms: _596  and  _597
REMARK  258  A    between atoms: _603  and  _605
REMARK  259  A    between atoms: _605  and  _606
REMARK  260  A    between atoms: _605  and  _608
REMARK  261  A    between atoms: _610  and  _612
REMARK  262  A    between atoms: _612  and  _613
REMARK  263  A    between atoms: _615  and  _617
REMARK  264  A    between atoms: _617  and  _618
REMARK  265  A    between atoms: _617  and  _620
REMARK  266  A    between atoms: _620  and  _621
REMARK  267  A    between atoms: _625  and  _626
REMARK  268  A    between atoms: _631  and  _633
REMARK  269  A    between atoms: _633  and  _634
REMARK  270  A    between atoms: _633  and  _636
REMARK  271  A    between atoms: _636  and  _637
REMARK  272  A    between atoms: _637  and  _638
REMARK  273  A    between atoms: _641  and  _643
REMARK  274  A    between atoms: _643  and  _644
REMARK  275  A    between atoms: _643  and  _646
REMARK  276  A    between atoms: _646  and  _647
REMARK  277  A    between atoms: _652  and  _653
REMARK  278  A    between atoms: _655  and  _657
REMARK  279  A    between atoms: _657  and  _658
REMARK  280  A    between atoms: _657  and  _660
REMARK  281  A    between atoms: _663  and  _665
REMARK  282  A    between atoms: _665  and  _666
REMARK  283  A    between atoms: _665  and  _668
REMARK  284  A    between atoms: _668  and  _669
REMARK  285  A    between atoms: _672  and  _674
REMARK  286  A    between atoms: _674  and  _675
REMARK  287  A    between atoms: _674  and  _677
REMARK  288  A    between atoms: _677  and  _678
REMARK  289  A    between atoms: _678  and  _679
REMARK  290  A    between atoms: _682  and  _684
REMARK  291  A    between atoms: _684  and  _685
REMARK  292  A    between atoms: _684  and  _687
REMARK  293  A    between atoms: _687  and  _688
REMARK  294  A    between atoms: _688  and  _689
REMARK  295  A    between atoms: _691  and  _693
REMARK  296  A    between atoms: _693  and  _694
REMARK  297  A    between atoms: _696  and  _698
REMARK  298  A    between atoms: _698  and  _699
REMARK  299  A    between atoms: _698  and  _701
REMARK  300  A    between atoms: _701  and  _702
REMARK  301  A    between atoms: _707  and  _708
REMARK  302  A    between atoms: _711  and  _712
REMARK  303  A    between atoms: _718  and  _719
REMARK  304  A    between atoms: _724  and  _726
REMARK  305  A    between atoms: _726  and  _727
REMARK  306  A    between atoms: _726  and  _729
REMARK  307  A    between atoms: _729  and  _730
REMARK  308  A    between atoms: _736  and  _738
REMARK  309  A    between atoms: _738  and  _739
REMARK  310  A    between atoms: _738  and  _741
REMARK  311  A    between atoms: _741  and  _742
REMARK  312  A    between atoms: _748  and  _750
REMARK  313  A    between atoms: _750  and  _751
REMARK  314  A    between atoms: _750  and  _753
REMARK  315  A    between atoms: _753  and  _754
REMARK  316  A    between atoms: _757  and  _759
REMARK  317  A    between atoms: _759  and  _760
REMARK  318  A    between atoms: _759  and  _762
REMARK  319  A    between atoms: _762  and  _763
REMARK  320  A    between atoms: _768  and  _770
REMARK  321  A    between atoms: _770  and  _771
REMARK  322  A    between atoms: _770  and  _773
REMARK  323  A    between atoms: _773  and  _774
REMARK  324  A    between atoms: _780  and  _782
REMARK  325  A    between atoms: _782  and  _783
REMARK  326  A    between atoms: _782  and  _785
REMARK  327  A    between atoms: _785  and  _786
REMARK  328  A    between atoms: _789  and  _791
REMARK  329  A    between atoms: _791  and  _792
REMARK  330  A    between atoms: _791  and  _794
REMARK  331  A    between atoms: _794  and  _795
REMARK  332  A    between atoms: _800  and  _801
REMARK                            x       y       z     vdW  Elec       q    Type
REMARK                         _______ _______ _______ _____ _____    ______ ____
ROOT
ATOM      1  C   LYS A   2      -9.987   5.122  -3.559  0.00  0.00    +0.241 C 
ATOM      2  N   LEU A   3      -8.867   5.750  -3.230  0.00  0.00    -0.297 N 
ATOM      3  H   LEU A   3      -8.026   5.205  -2.952  0.00  0.00    +0.150 HD
ATOM      4  O   LYS A   2     -11.066   5.711  -3.670  0.00  0.00    -0.273 OA
ENDROOT
BRANCH   2   5
ATOM      5  CA  LEU A   3      -8.817   7.214  -3.259  0.00  0.00    +0.149 C 
BRANCH   5   6
ATOM      6  C   LEU A   3      -8.511   7.677  -4.689  0.00  0.00    +0.241 C 
ATOM      7  O   LEU A   3      -7.458   7.377  -5.230  0.00  0.00    -0.273 OA
ATOM      8  N   GLU A   4      -9.455   8.384  -5.297  0.00  0.00    -0.298 N 
ATOM      9  H   GLU A   4     -10.333   8.598  -4.782  0.00  0.00    +0.150 HD
BRANCH   8  10
ATOM     10  CA  GLU A   4      -9.303   8.873  -6.668  0.00  0.00    +0.137 C 
BRANCH  10  11
ATOM     11  C   GLU A   4      -8.379  10.096  -6.741  0.00  0.00    +0.227 C 
ATOM     12  O   GLU A   4      -7.457  10.154  -7.576  0.00  0.00    -0.286 OA
ENDBRANCH  10  11
BRANCH  10  13
ATOM     13  CB  GLU A   4     -10.676   9.194  -7.263  0.00  0.00    +0.039 C 
BRANCH  13  14
ATOM     14  CG  GLU A   4     -11.546   7.938  -7.455  0.00  0.00    +0.116 C 
BRANCH  14  15
ATOM     15  CD  GLU A   4     -10.923   6.962  -8.430  0.00  0.00    +0.365 C 
ATOM     16  OE2 GLU A   4     -10.773   5.772  -8.083  0.00  0.00    -0.246 OA
ATOM     17  OE1 GLU A   4     -10.566   7.389  -9.547  0.00  0.00    -0.246 OA
ENDBRANCH  14  15
ENDBRANCH  13  14
ENDBRANCH  10  13
ENDBRANCH   8  10
ENDBRANCH   5   6
BRANCH   5  18
ATOM     18  CB  LEU A   3      -7.784   7.754  -2.273  0.00  0.00    +0.029 C 
BRANCH  18  19
ATOM     19  CG  LEU A   3      -7.534   9.268  -2.150  0.00  0.00    +0.002 C 
ATOM     20  CD2 LEU A   3      -6.445   9.499  -1.121  0.00  0.00    +0.000 C 
ATOM     21  CD1 LEU A   3      -8.761   9.985  -1.699  0.00  0.00    +0.000 C 
ENDBRANCH  18  19
ENDBRANCH   5  18
ENDBRANCH   2   5
BRANCH   1  22
ATOM     22  CA  LYS A   2      -9.885   3.606  -3.811  0.00  0.00    +0.149 C 
BRANCH  22  25
ATOM     23  C   VAL A   1     -10.472   2.514  -1.718  0.00  0.00    +0.238 C 
ATOM     24  O   VAL A   1      -9.388   2.796  -1.201  0.00  0.00    -0.274 OA
ATOM     25  N   LYS A   2     -10.800   2.872  -2.951  0.00  0.00    -0.297 N 
ATOM     26  H   LYS A   2     -11.741   2.620  -3.315  0.00  0.00    +0.150 HD
BRANCH  23  27
ATOM     27  CA  VAL A   1     -11.524   1.701  -0.946  0.00  0.00    +0.145 C 
BRANCH  27  28
ATOM     28  CB  VAL A   1     -12.441   2.603  -0.084  0.00  0.00    +0.025 C 
ATOM     29  CG2 VAL A   1     -11.628   3.604   0.740  0.00  0.00    +0.002 C 
ATOM     30  CG1 VAL A   1     -13.468   3.334  -0.973  0.00  0.00    +0.002 C 
ENDBRANCH  27  28
BRANCH  27  31
ATOM     31  N   VAL A   1     -10.870   0.672  -0.160  0.00  0.00    -0.238 NA
ATOM     32  H   VAL A   1     -11.004   0.650   0.871  0.00  0.00    +0.142 HD
ENDBRANCH  27  31
ENDBRANCH  23  27
ENDBRANCH  22  25
BRANCH  22  33
ATOM     33  CB  LYS A   2     -10.178   3.298  -5.284  0.00  0.00    +0.029 C 
BRANCH  33  34
ATOM     34  CG  LYS A   2      -9.990   1.820  -5.677  0.00  0.00    +0.000 C 
BRANCH  34  35
ATOM     35  CD  LYS A   2      -8.537   1.535  -6.139  0.00  0.00    -0.024 C 
BRANCH  35  36
ATOM     36  CE  LYS A   2      -8.274   0.033  -6.302  0.00  0.00    -0.086 C 
BRANCH  36  37
ATOM     37  NZ  LYS A   2      -6.805  -0.278  -6.251  0.00  0.00    +0.380 N 
ATOM     38  HZ1 LYS A   2      -6.419   0.027  -5.335  0.00  0.00    -0.089 HD
ATOM     39  HZ2 LYS A   2      -6.665  -1.302  -6.364  0.00  0.00    -0.089 HD
ATOM     40  HZ3 LYS A   2      -6.318   0.227  -7.019  0.00  0.00    -0.089 HD
ENDBRANCH  36  37
ENDBRANCH  35  36
ENDBRANCH  34  35
ENDBRANCH  33  34
ENDBRANCH  22  33
ENDBRANCH   1  22
TORSDOF 19
REMARK  Name = ../refined-set-2016/3agl/3agl_pocket.pdb
REMARK  332 active torsions:
REMARK  status: ('A' for Active; 'I' for Inactive)
REMARK    1  A    between atoms: _1  and  _3
REMARK    2  A    between atoms: _3  and  _4
REMARK    3  A    between atoms: _3  and  _6
REMARK    4  A    between atoms: _6  and  _7
REMARK    5  A    between atoms: _10  and  _12
REMARK    6  A    between atoms: _12  and  _13
REMARK    7  A    between atoms: _12  and  _15
REMARK    8  A    between atoms: _15  and  _16
REMARK    9  A    between atoms: _19  and  _21
REMARK   10  A    between atoms: _21  and  _22
REMARK   11  A    between atoms: _24  and  _26
REMARK   12  A    between atoms: _26  and  _27
REMARK   13  A    between atoms: _26  and  _29
REMARK   14  A    between atoms: _29  and  _30
REMARK   15  A    between atoms: _33  and  _35
REMARK   16  A    between atoms: _35  and  _36
REMARK   17  A    between atoms: _38  and  _40
REMARK   18  A    between atoms: _40  and  _41
REMARK   19  A    between atoms: _40  and  _43
REMARK   20  A    between atoms: _43  and  _44
REMARK   21  A    between atoms: _46  and  _48
REMARK   22  A    between atoms: _48  and  _49
REMARK   23  A    between atoms: _48  and  _51
REMARK   24  A    between atoms: _51  and  _52
REMARK   25  A    between atoms: _58  and  _60
REMARK   26  A    between atoms: _60  and  _61
REMARK   27  A    between atoms: _63  and  _65
REMARK   28  A    between atoms: _65  and  _66
REMARK   29  A    between atoms: _65  and  _68
REMARK   30  A    between atoms: _68  and  _69
REMARK   31  A    between atoms: _69  and  _70
REMARK   32  A    between atoms: _70  and  _71
REMARK   33  A    between atoms: _80  and  _82
REMARK   34  A    between atoms: _82  and  _83
REMARK   35  A    between atoms: _82  and  _85
REMARK   36  A    between atoms: _88  and  _90
REMARK   37  A    between atoms: _90  and  _91
REMARK   38  A    between atoms: _90  and  _93
REMARK   39  A    between atoms: _93  and  _94
REMARK   40  A    between atoms: _94  and  _95
REMARK   41  A    between atoms: _97  and  _99
REMARK   42  A    between atoms: _99  and  _100
REMARK   43  A    between atoms: _99  and  _102
REMARK   44  A    between atoms: _102  and  _103
REMARK   45  A    between atoms: _106  and  _108
REMARK   46  A    between atoms: _108  and  _109
REMARK   47  A    between atoms: _108  and  _111
REMARK   48  A    between atoms: _111  and  _112
REMARK   49  A    between atoms: _117  and  _118
REMARK   50  A    between atoms: _120  and  _122
REMARK   51  A    between atoms: _122  and  _123
REMARK   52  A    between atoms: _126  and  _128
REMARK   53  A    between atoms: _128  and  _129
REMARK   54  A    between atoms: _128  and  _131
REMARK   55  A    between atoms: _131  and  _132
REMARK   56  A    between atoms: _132  and  _133
REMARK   57  A    between atoms: _135  and  _137
REMARK   58  A    between atoms: _137  and  _138
REMARK   59  A    between atoms: _137  and  _140
REMARK   60  A    between atoms: _140  and  _141
REMARK   61  A    between atoms: _141  and  _142
REMARK   62  A    between atoms: _142  and  _143
REMARK   63  A    between atoms: _143  and  _144
REMARK   64  A    between atoms: _148  and  _150
REMARK   65  A    between atoms: _150  and  _151
REMARK   66  A    between atoms: _150  and  _153
REMARK   67  A    between atoms: _153  and  _154
REMARK   68  A    between atoms: _157  and  _159
REMARK   69  A    between atoms: _159  and  _160
REMARK   70  A    between atoms: _159  and  _162
REMARK   71  A    between atoms: _162  and  _163
REMARK   72  A    between atoms: _166  and  _168
REMARK   73  A    between atoms: _168  and  _169
REMARK   74  A    between atoms: _168  and  _171
REMARK   75  A    between atoms: _171  and  _172
REMARK   76  A    between atoms: _175  and  _177
REMARK   77  A    between atoms: _177  and  _178
REMARK   78  A    between atoms: _177  and  _180
REMARK   79  A    between atoms: _180  and  _181
REMARK   80  A    between atoms: _181  and  _182
REMARK   81  A    between atoms: _182  and  _183
REMARK   82  A    between atoms: _183  and  _184
REMARK   83  A    between atoms: _188  and  _190
REMARK   84  A    between atoms: _190  and  _191
REMARK   85  A    between atoms: _190  and  _193
REMARK   86  A    between atoms: _196  and  _198
REMARK   87  A    between atoms: _198  and  _199
REMARK   88  A    between atoms: _198  and  _201
REMARK   89  A    between atoms: _201  and  _202
REMARK   90  A    between atoms: _205  and  _207
REMARK   91  A    between atoms: _207  and  _208
REMARK   92  A    between atoms: _207  and  _210
REMARK   93  A    between atoms: _210  and  _211
REMARK   94  A    between atoms: _211  and  _212
REMARK   95  A    between atoms: _217  and  _219
REMARK   96  A    between atoms: _219  and  _220
REMARK   97  A    between atoms: _219  and  _222
REMARK   98  A    between atoms: _222  and  _223
REMARK   99  A    between atoms: _228  and  _230
REMARK  100  A    between atoms: _230  and  _231
REMARK  101  A    between atoms: _230  and  _233
REMARK  102  A    between atoms: _233  and  _234
REMARK  103  A    between atoms: _237  and  _239
REMARK  104  A    between atoms: _239  and  _240
REMARK  105  A    between atoms: _239  and  _242
REMARK  106  A    between atoms: _242  and  _243
REMARK  107  A    between atoms: _243  and  _244
REMARK  108  A    between atoms: _247  and  _249
REMARK  109  A    between atoms: _249  and  _250
REMARK  110  A    between atoms: _249  and  _252
REMARK  111  A    between atoms: _252  and  _253
REMARK  112  A    between atoms: _256  and  _258
REMARK  113  A    between atoms: _258  and  _259
REMARK  114  A    between atoms: _258  and  _261
REMARK  115  A    between atoms: _264  and  _266
REMARK  116  A    between atoms: _266  and  _267
REMARK  117  A    between atoms: _266  and  _269
REMARK  118  A    between atoms: _269  and  _270
REMARK  119  A    between atoms: _270  and  _271
REMARK  120  A    between atoms: _271  and  _272
REMARK  121  A    between atoms: _272  and  _273
REMARK  122  A    between atoms: _277  and  _279
REMARK  123  A    between atoms: _279  and  _280
REMARK  124  A    between atoms: _279  and  _282
REMARK  125  A    between atoms: _282  and  _283
REMARK  126  A    between atoms: _286  and  _288
REMARK  127  A    between atoms: _288  and  _289
REMARK  128  A    between atoms: _288  and  _291
REMARK  129  A    between atoms: _291  and  _292
REMARK  130  A    between atoms: _292  and  _293
REMARK  131  A    between atoms: _296  and  _298
REMARK  132  A    between atoms: _298  and  _299
REMARK  133  A    between atoms: _298  and  _301
REMARK  134  A    between atoms: _301  and  _302
REMARK  135  A    between atoms: _302  and  _303
REMARK  136  A    between atoms: _305  and  _307
REMARK  137  A    between atoms: _307  and  _308
REMARK  138  A    between atoms: _307  and  _310
REMARK  139  A    between atoms: _313  and  _315
REMARK  140  A    between atoms: _315  and  _316
REMARK  141  A    between atoms: _315  and  _318
REMARK  142  A    between atoms: _318  and  _319
REMARK  143  A    between atoms: _319  and  _320
REMARK  144  A    between atoms: _322  and  _324
REMARK  145  A    between atoms: _324  and  _325
REMARK  146  A    between atoms: _324  and  _327
REMARK  147  A    between atoms: _327  and  _328
REMARK  148  A    between atoms: _328  and  _329
REMARK  149  A    between atoms: _332  and  _334
REMARK  150  A    between atoms: _334  and  _335
REMARK  151  A    between atoms: _334  and  _337
REMARK  152  A    between atoms: _337  and  _338
REMARK  153  A    between atoms: _343  and  _344
REMARK  154  A    between atoms: _346  and  _348
REMARK  155  A    between atoms: _348  and  _349
REMARK  156  A    between atoms: _348  and  _351
REMARK  157  A    between atoms: _355  and  _356
REMARK  158  A    between atoms: _361  and  _363
REMARK  159  A    between atoms: _363  and  _364
REMARK  160  A    between atoms: _366  and  _368
REMARK  161  A    between atoms: _368  and  _369
REMARK  162  A    between atoms: _371  and  _373
REMARK  163  A    between atoms: _373  and  _374
REMARK  164  A    between atoms: _373  and  _376
REMARK  165  A    between atoms: _376  and  _377
REMARK  166  A    between atoms: _377  and  _378
REMARK  167  A    between atoms: _381  and  _383
REMARK  168  A    between atoms: _383  and  _384
REMARK  169  A    between atoms: _383  and  _386
REMARK  170  A    between atoms: _386  and  _387
REMARK  171  A    between atoms: _387  and  _388
REMARK  172  A    between atoms: _390  and  _392
REMARK  173  A    between atoms: _392  and  _393
REMARK  174  A    between atoms: _392  and  _395
REMARK  175  A    between atoms: _395  and  _396
REMARK  176  A    between atoms: _402  and  _404
REMARK  177  A    between atoms: _404  and  _405
REMARK  178  A    between atoms: _404  and  _407
REMARK  179  A    between atoms: _407  and  _408
REMARK  180  A    between atoms: _410  and  _412
REMARK  181  A    between atoms: _412  and  _413
REMARK  182  A    between atoms: _412  and  _415
REMARK  183  A    between atoms: _415  and  _416
REMARK  184  A    between atoms: _419  and  _421
REMARK  185  A    between atoms: _421  and  _422
REMARK  186  A    between atoms: _421  and  _424
REMARK  187  A    between atoms: _424  and  _425
REMARK  188  A    between atoms: _425  and  _426
REMARK  189  A    between atoms: _426  and  _427
REMARK  190  A    between atoms: _436  and  _438
REMARK  191  A    between atoms: _438  and  _439
REMARK  192  A    between atoms: _438  and  _441
REMARK  193  A    between atoms: _441  and  _442
REMARK  194  A    between atoms: _447  and  _448
REMARK  195  A    between atoms: _450  and  _452
REMARK  196  A    between atoms: _452  and  _453
REMARK  197  A    between atoms: _452  and  _455
REMARK  198  A    between atoms: _455  and  _456
REMARK  199  A    between atoms: _459  and  _461
REMARK  200  A    between atoms: _461  and  _462
REMARK  201  A    between atoms: _461  and  _464
REMARK  202  A    between atoms: _464  and  _465
REMARK  203  A    between atoms: _468  and  _470
REMARK  204  A    between atoms: _470  and  _471
REMARK  205  A    between atoms: _470  and  _473
REMARK  206  A    between atoms: _473  and  _474
REMARK  207  A    between atoms: _474  and  _475
REMARK  208  A    between atoms: _475  and  _476
REMARK  209  A    between atoms: _476  and  _477
REMARK  210  A    between atoms: _482  and  _483
REMARK  211  A    between atoms: _488  and  _490
REMARK  212  A    between atoms: _490  and  _491
REMARK  213  A    between atoms: _490  and  _493
REMARK  214  A    between atoms: _493  and  _494
REMARK  215  A    between atoms: _494  and  _495
REMARK  216  A    between atoms: _498  and  _500
REMARK  217  A    between atoms: _500  and  _501
REMARK  218  A    between atoms: _500  and  _503
REMARK  219  A    between atoms: _503  and  _504
REMARK  220  A    between atoms: _509  and  _511
REMARK  221  A    between atoms: _511  and  _512
REMARK  222  A    between atoms: _511  and  _514
REMARK  223  A    between atoms: _514  and  _515
REMARK  224  A    between atoms: _518  and  _520
REMARK  225  A    between atoms: _520  and  _521
REMARK  226  A    between atoms: _520  and  _523
REMARK  227  A    between atoms: _523  and  _524
REMARK  228  A    between atoms: _527  and  _529
REMARK  229  A    between atoms: _529  and  _530
REMARK  230  A    between atoms: _529  and  _532
REMARK  231  A    between atoms: _532  and  _533
REMARK  232  A    between atoms: _536  and  _538
REMARK  233  A    between atoms: _538  and  _539
REMARK  234  A    between atoms: _538  and  _541
REMARK  235  A    between atoms: _541  and  _542
REMARK  236  A    between atoms: _542  and  _543
REMARK  237  A    between atoms: _548  and  _550
REMARK  238  A    between atoms: _550  and  _551
REMARK  239  A    between atoms: _550  and  _553
REMARK  240  A    between atoms: _556  and  _558
REMARK  241  A    between atoms: _558  and  _559
REMARK  242  A    between atoms: _558  and  _561
REMARK  243  A    between atoms: _561  and  _562
REMARK  244  A    between atoms: _565  and  _567
REMARK  245  A    between atoms: _567  and  _568
REMARK  246  A    between atoms: _567  and  _570
REMARK  247  A    between atoms: _570  and  _571
REMARK  248  A    between atoms: _574  and  _576
REMARK  249  A    between atoms: _576  and  _577
REMARK  250  A    between atoms: _576  and  _579
REMARK  251  A    between atoms: _579  and  _580
REMARK  252  A    between atoms: _586  and  _588
REMARK  253  A    between atoms: _588  and  _589
REMARK  254  A    between atoms: _591  and  _593
REMARK  255  A    between atoms: _593  and  _594
REMARK  256  A    between atoms: _593  and  _596
REMARK  257  A    between atoms: _596  and  _597
REMARK  258  A    between atoms: _603  and  _605
REMARK  259  A    between atoms: _605  and  _606
REMARK  260  A    between atoms: _605  and  _608
REMARK  261  A    between atoms: _610  and  _612
REMARK  262  A    between atoms: _612  and  _613
REMARK  263  A    between atoms: _615  and  _617
REMARK  264  A    between atoms: _617  and  _618
REMARK  265  A    between atoms: _617  and  _620
REMARK  266  A    between atoms: _620  and  _621
REMARK  267  A    between atoms: _625  and  _626
REMARK  268  A    between atoms: _631  and  _633
REMARK  269  A    between atoms: _633  and  _634
REMARK  270  A    between atoms: _633  and  _636
REMARK  271  A    between atoms: _636  and  _637
REMARK  272  A    between atoms: _637  and  _638
REMARK  273  A    between atoms: _641  and  _643
REMARK  274  A    between atoms: _643  and  _644
REMARK  275  A    between atoms: _643  and  _646
REMARK  276  A    between atoms: _646  and  _647
REMARK  277  A    between atoms: _652  and  _653
REMARK  278  A    between atoms: _655  and  _657
REMARK  279  A    between atoms: _657  and  _658
REMARK  280  A    between atoms: _657  and  _660
REMARK  281  A    between atoms: _663  and  _665
REMARK  282  A    between atoms: _665  and  _666
REMARK  283  A    between atoms: _665  and  _668
REMARK  284  A    between atoms: _668  and  _669
REMARK  285  A    between atoms: _672  and  _674
REMARK  286  A    between atoms: _674  and  _675
REMARK  287  A    between atoms: _674  and  _677
REMARK  288  A    between atoms: _677  and  _678
REMARK  289  A    between atoms: _678  and  _679
REMARK  290  A    between atoms: _682  and  _684
REMARK  291  A    between atoms: _684  and  _685
REMARK  292  A    between atoms: _684  and  _687
REMARK  293  A    between atoms: _687  and  _688
REMARK  294  A    between atoms: _688  and  _689
REMARK  295  A    between atoms: _691  and  _693
REMARK  296  A    between atoms: _693  and  _694
REMARK  297  A    between atoms: _696  and  _698
REMARK  298  A    between atoms: _698  and  _699
REMARK  299  A    between atoms: _698  and  _701
REMARK  300  A    between atoms: _701  and  _702
REMARK  301  A    between atoms: _707  and  _708
REMARK  302  A    between atoms: _711  and  _712
REMARK  303  A    between atoms: _718  and  _719
REMARK  304  A    between atoms: _724  and  _726
REMARK  305  A    between atoms: _726  and  _727
REMARK  306  A    between atoms: _726  and  _729
REMARK  307  A    between atoms: _729  and  _730
REMARK  308  A    between atoms: _736  and  _738
REMARK  309  A    between atoms: _738  and  _739
REMARK  310  A    between atoms: _738  and  _741
REMARK  311  A    between atoms: _741  and  _742
REMARK  312  A    between atoms: _748  and  _750
REMARK  313  A    between atoms: _750  and  _751
REMARK  314  A    between atoms: _750  and  _753
REMARK  315  A    between atoms: _753  and  _754
REMARK  316  A    between atoms: _757  and  _759
REMARK  317  A    between atoms: _759  and  _760
REMARK  318  A    between atoms: _759  and  _762
REMARK  319  A    between atoms: _762  and  _763
REMARK  320  A    between atoms: _768  and  _770
REMARK  321  A    between atoms: _770  and  _771
REMARK  322  A    between atoms: _770  and  _773
REMARK  323  A    between atoms: _773  and  _774
REMARK  324  A    between atoms: _780  and  _782
REMARK  325  A    between atoms: _782  and  _783
REMARK  326  A    between atoms: _782  and  _785
REMARK  327  A    between atoms: _785  and  _786
REMARK  328  A    between atoms: _789  and  _791
REMARK  329  A    between atoms: _791  and  _792
REMARK  330  A    between atoms: _791  and  _794
REMARK  331  A    between atoms: _794  and  _795
REMARK  332  A    between atoms: _800  and  _801
REMARK                            x       y       z     vdW  Elec       q    Type
REMARK                         _______ _______ _______ _____ _____    ______ ____
ROOT
ATOM      1  C   VAL A   6     -21.048   2.363  -2.101  0.00  0.00    +0.244 C 
ATOM      2  O   VAL A   6     -21.285   2.593  -0.911  0.00  0.00    -0.273 OA
ATOM      3  N   PRO A   7     -22.028   2.167  -3.009  0.00  0.00    -0.272 N 
ATOM      4  CA  PRO A   7     -23.451   2.376  -2.690  0.00  0.00    +0.152 C 
ATOM      5  CB  PRO A   7     -24.127   2.384  -4.076  0.00  0.00    +0.031 C 
ATOM      6  CG  PRO A   7     -23.245   1.572  -4.939  0.00  0.00    +0.024 C 
ATOM      7  CD  PRO A   7     -21.837   1.849  -4.445  0.00  0.00    +0.094 C 
ENDROOT
BRANCH   4   8
ATOM      8  C   PRO A   7     -24.101   1.314  -1.771  0.00  0.00    +0.241 C 
ATOM      9  O   PRO A   7     -25.177   1.556  -1.224  0.00  0.00    -0.273 OA
ATOM     10  N   GLY A   8     -23.448   0.173  -1.586  0.00  0.00    -0.295 N 
ATOM     11  H   GLY A   8     -22.518   0.047  -2.033  0.00  0.00    +0.150 HD
BRANCH  10  12
ATOM     12  CA  GLY A   8     -23.999  -0.917  -0.769  0.00  0.00    +0.176 C 
BRANCH  12  13
ATOM     13  C   GLY A   8     -24.165  -0.603   0.719  0.00  0.00    +0.243 C 
ATOM     14  O   GLY A   8     -24.897  -1.276   1.403  0.00  0.00    -0.273 OA
ATOM     15  N   GLY A   9     -23.481   0.423   1.216  0.00  0.00    -0.295 N 
ATOM     16  H   GLY A   9     -22.841   0.960   0.597  0.00  0.00    +0.150 HD
BRANCH  15  17
ATOM     17  CA  GLY A   9     -23.615   0.805   2.614  0.00  0.00    +0.176 C 
BRANCH  17  18
ATOM     18  C   GLY A   9     -22.669   0.022   3.511  0.00  0.00    +0.243 C 
ATOM     19  N   GLU A  10     -22.739   0.309   4.812  0.00  0.00    -0.297 N 
ATOM     20  H   GLU A  10     -23.458   0.991   5.128  0.00  0.00    +0.150 HD
ATOM     21  O   GLY A   9     -21.932  -0.851   3.036  0.00  0.00    -0.273 OA
BRANCH  19  22
ATOM     22  CA  GLU A  10     -21.860  -0.283   5.814  0.00  0.00    +0.149 C 
BRANCH  22  23
ATOM     23  C   GLU A  10     -22.302  -1.683   6.155  0.00  0.00    +0.241 C 
ATOM     24  N   MET A  11     -21.337  -2.572   6.386  0.00  0.00    -0.297 N 
ATOM     25  H   MET A  11     -20.350  -2.334   6.161  0.00  0.00    +0.150 HD
ATOM     26  O   GLU A  10     -23.492  -1.939   6.271  0.00  0.00    -0.273 OA
BRANCH  24  27
ATOM     27  CA  MET A  11     -21.660  -3.887   6.957  0.00  0.00    +0.149 C 
BRANCH  27  28
ATOM     28  C   MET A  11     -22.484  -3.746   8.245  0.00  0.00    +0.241 C 
ATOM     29  N   PHE A  12     -22.202  -2.696   9.012  0.00  0.00    -0.297 N 
ATOM     30  H   PHE A  12     -21.457  -2.040   8.702  0.00  0.00    +0.150 HD
ATOM     31  O   MET A  11     -23.365  -4.566   8.499  0.00  0.00    -0.273 OA
BRANCH  29  32
ATOM     32  CA  PHE A  12     -22.886  -2.426  10.259  0.00  0.00    +0.153 C 
BRANCH  32  33
ATOM     33  C   PHE A  12     -24.400  -2.415  10.109  0.00  0.00    +0.241 C 
ATOM     34  O   PHE A  12     -25.092  -3.069  10.867  0.00  0.00    -0.273 OA
ATOM     35  N   SER A  13     -24.906  -1.694   9.116  0.00  0.00    -0.296 N 
ATOM     36  H   SER A  13     -24.260  -1.208   8.461  0.00  0.00    +0.150 HD
BRANCH  35  37
ATOM     37  CA  SER A  13     -26.345  -1.567   8.921  0.00  0.00    +0.166 C 
BRANCH  37  38
ATOM     38  CB  SER A  13     -26.938  -2.899   8.509  0.00  0.00    +0.229 C 
ATOM     39  OG  SER A  13     -27.989  -3.281   9.029  0.00  0.00    -0.286 OA
ENDBRANCH  37  38
BRANCH  37  40
ATOM     40  C   SER A  13     -26.669  -0.498   7.874  0.00  0.00    +0.165 C 
BRANCH  40  41
ATOM     41  O   SER A  13     -26.025   0.707   8.221  0.00  0.00    -0.380 OA
ATOM     42  H   SER A  13     -26.234   1.398   7.544  0.00  0.00    +0.211 HD
ENDBRANCH  40  41
ENDBRANCH  37  40
ENDBRANCH  35  37
ENDBRANCH  32  33
BRANCH  32  43
ATOM     43  CB  PHE A  12     -22.372  -1.125  10.911  0.00  0.00    +0.055 C 
BRANCH  43  44
ATOM     44  CG  PHE A  12     -23.006  -0.815  12.248  0.00  0.00    -0.020 A 
ATOM     45  CD2 PHE A  12     -22.558  -1.431  13.404  0.00  0.00    -0.004 A 
ATOM     46  CE2 PHE A  12     -23.149  -1.130  14.649  0.00  0.00    -0.000 A 
ATOM     47  CZ  PHE A  12     -24.177  -0.206  14.737  0.00  0.00    -0.000 A 
ATOM     48  CE1 PHE A  12     -24.626   0.412  13.591  0.00  0.00    -0.000 A 
ATOM     49  CD1 PHE A  12     -24.036   0.112  12.352  0.00  0.00    -0.004 A 
ENDBRANCH  43  44
ENDBRANCH  32  43
ENDBRANCH  29  32
ENDBRANCH  27  28
BRANCH  27  50
ATOM     50  CB  MET A  11     -20.394  -4.690   7.254  0.00  0.00    +0.041 C 
BRANCH  50  51
ATOM     51  CG  MET A  11     -20.655  -6.059   7.909  0.00  0.00    +0.060 C 
BRANCH  51  52
ATOM     52  SD  MET A  11     -19.187  -6.739   8.703  0.00  0.00    -0.139 S 
ATOM     53  CE  MET A  11     -18.239  -7.112   7.247  0.00  0.00    +0.069 C 
ENDBRANCH  51  52
ENDBRANCH  50  51
ENDBRANCH  27  50
ENDBRANCH  24  27
ENDBRANCH  22  23
BRANCH  22  54
ATOM     54  CB  GLU A  10     -21.922   0.512   7.119  0.00  0.00    +0.041 C 
BRANCH  54  55
ATOM     55  CG  GLU A  10     -21.623   1.994   6.975  0.00  0.00    +0.116 C 
BRANCH  55  56
ATOM     56  CD  GLU A  10     -21.955   2.792   8.234  0.00  0.00    +0.365 C 
ATOM     57  OE2 GLU A  10     -22.330   2.184   9.263  0.00  0.00    -0.246 OA
ATOM     58  OE1 GLU A  10     -21.843   4.040   8.190  0.00  0.00    -0.246 OA
ENDBRANCH  55  56
ENDBRANCH  54  55
ENDBRANCH  22  54
ENDBRANCH  19  22
ENDBRANCH  17  18
ENDBRANCH  15  17
ENDBRANCH  12  13
ENDBRANCH  10  12
ENDBRANCH   4   8
BRANCH   1  59
ATOM     59  CA  VAL A   6     -19.596   2.310  -2.602  0.00  0.00    +0.149 C 
BRANCH  59  61
ATOM     60  C   TYR A   5     -18.924   4.228  -3.980  0.00  0.00    +0.241 C 
ATOM     61  N   VAL A   6     -19.080   3.671  -2.779  0.00  0.00    -0.297 N 
ATOM     62  H   VAL A   6     -18.826   4.223  -1.935  0.00  0.00    +0.150 HD
ATOM     63  O   TYR A   5     -19.047   3.609  -5.042  0.00  0.00    -0.273 OA
BRANCH  60  64
ATOM     64  CA  TYR A   5     -18.540   5.716  -3.991  0.00  0.00    +0.153 C 
BRANCH  64  67
ATOM     65  C   GLU A   4     -16.116   5.579  -4.211  0.00  0.00    +0.241 C 
ATOM     66  O   GLU A   4     -15.982   5.235  -3.021  0.00  0.00    -0.273 OA
ATOM     67  N   TYR A   5     -17.296   5.893  -4.743  0.00  0.00    -0.297 N 
ATOM     68  H   TYR A   5     -17.335   6.271  -5.711  0.00  0.00    +0.150 HD
BRANCH  65  69
ATOM     69  CA  GLU A   4     -14.886   5.708  -5.142  0.00  0.00    +0.149 C 
BRANCH  69  72
ATOM     70  C   MET A   3     -14.088   7.683  -3.971  0.00  0.00    +0.241 C 
ATOM     71  O   MET A   3     -15.043   8.383  -4.304  0.00  0.00    -0.273 OA
ATOM     72  N   GLU A   4     -13.871   6.457  -4.438  0.00  0.00    -0.297 N 
ATOM     73  H   GLU A   4     -12.938   6.022  -4.291  0.00  0.00    +0.150 HD
BRANCH  70  74
ATOM     74  CA  MET A   3     -13.085   8.197  -2.961  0.00  0.00    +0.149 C 
BRANCH  74  76
ATOM     75  C   VAL A   2     -12.351  10.477  -3.429  0.00  0.00    +0.241 C 
ATOM     76  N   MET A   3     -13.193   9.649  -2.815  0.00  0.00    -0.297 N 
ATOM     77  H   MET A   3     -13.946  10.044  -2.217  0.00  0.00    +0.150 HD
ATOM     78  O   VAL A   2     -11.472  10.084  -4.186  0.00  0.00    -0.273 OA
BRANCH  75  79
ATOM     79  CA  VAL A   2     -12.496  11.972  -3.119  0.00  0.00    +0.148 C 
BRANCH  79  82
ATOM     80  C   MET A   1     -11.581  12.523  -0.940  0.00  0.00    +0.238 C 
ATOM     81  O   MET A   1     -12.624  12.222  -0.358  0.00  0.00    -0.274 OA
ATOM     82  N   VAL A   2     -11.415  12.400  -2.247  0.00  0.00    -0.297 N 
ATOM     83  H   VAL A   2     -10.486  12.615  -2.661  0.00  0.00    +0.150 HD
BRANCH  80  84
ATOM     84  CA  MET A   1     -10.412  13.112  -0.180  0.00  0.00    +0.146 C 
BRANCH  84  85
ATOM     85  N   MET A   1     -10.847  14.376   0.379  0.00  0.00    -0.238 NA
ATOM     86  H   MET A   1     -11.683  14.396   0.997  0.00  0.00    +0.142 HD
ENDBRANCH  84  85
BRANCH  84  87
ATOM     87  CB  MET A   1      -9.922  12.169   0.931  0.00  0.00    +0.038 C 
BRANCH  87  88
ATOM     88  CG  MET A   1      -8.581  12.610   1.531  0.00  0.00    +0.060 C 
BRANCH  88  89
ATOM     89  SD  MET A   1      -8.112  11.695   3.016  0.00  0.00    -0.139 S 
ATOM     90  CE  MET A   1      -9.066  12.529   4.262  0.00  0.00    +0.069 C 
ENDBRANCH  88  89
ENDBRANCH  87  88
ENDBRANCH  84  87
ENDBRANCH  80  84
ENDBRANCH  79  82
BRANCH  79  91
ATOM     91  CB  VAL A   2     -12.520  12.810  -4.397  0.00  0.00    +0.027 C 
ATOM     92  CG2 VAL A   2     -12.683  14.293  -4.064  0.00  0.00    +0.002 C 
ATOM     93  CG1 VAL A   2     -13.650  12.384  -5.314  0.00  0.00    +0.002 C 
ENDBRANCH  79  91
ENDBRANCH  75  79
ENDBRANCH  74  76
BRANCH  74  94
ATOM     94  CB  MET A   3     -13.368   7.482  -1.620  0.00  0.00    +0.041 C 
BRANCH  94  95
ATOM     95  CG  MET A   3     -12.362   7.746  -0.522  0.00  0.00    +0.060 C 
BRANCH  95  96
ATOM     96  SD  MET A   3     -13.122   7.300   1.051  0.00  0.00    -0.139 S 
ATOM     97  CE  MET A   3     -13.971   8.820   1.477  0.00  0.00    +0.069 C 
ENDBRANCH  95  96
ENDBRANCH  94  95
ENDBRANCH  74  94
ENDBRANCH  70  74
ENDBRANCH  69  72
BRANCH  69  98
ATOM     98  CB  GLU A   4     -14.348   4.312  -5.476  0.00  0.00    +0.041 C 
BRANCH  98  99
ATOM     99  CG  GLU A   4     -15.381   3.341  -6.061  0.00  0.00    +0.116 C 
BRANCH  99 100
ATOM    100  CD  GLU A   4     -14.757   2.153  -6.805  0.00  0.00    +0.365 C 
ATOM    101  OE2 GLU A   4     -13.519   1.995  -6.787  0.00  0.00    -0.246 OA
ATOM    102  OE1 GLU A   4     -15.514   1.379  -7.423  0.00  0.00    -0.246 OA
ENDBRANCH  99 100
ENDBRANCH  98  99
ENDBRANCH  69  98
ENDBRANCH  65  69
ENDBRANCH  64  67
BRANCH  64 103
ATOM    103  CB  TYR A   5     -19.675   6.568  -4.579  0.00  0.00    +0.055 C 
BRANCH 103 104
ATOM    104  CG  TYR A   5     -21.051   6.345  -3.949  0.00  0.00    -0.020 A 
ATOM    105  CD2 TYR A   5     -21.232   6.415  -2.562  0.00  0.00    -0.001 A 
ATOM    106  CE2 TYR A   5     -22.493   6.224  -1.988  0.00  0.00    +0.036 A 
ATOM    107  CZ  TYR A   5     -23.600   5.982  -2.807  0.00  0.00    +0.134 A 
ATOM    108  CE1 TYR A   5     -23.466   5.909  -4.178  0.00  0.00    +0.036 A 
ATOM    109  CD1 TYR A   5     -22.190   6.095  -4.757  0.00  0.00    -0.001 A 
BRANCH 107 110
ATOM    110  OH  TYR A   5     -24.837   5.798  -2.234  0.00  0.00    -0.506 OA
ATOM    111  HH  TYR A   5     -25.175   4.896  -2.464  0.00  0.00    +0.292 HD
ENDBRANCH 107 110
ENDBRANCH 103 104
ENDBRANCH  64 103
ENDBRANCH  60  64
ENDBRANCH  59  61
BRANCH  59 112
ATOM    112  CB  VAL A   6     -18.683   1.468  -1.661  0.00  0.00    +0.027 C 
ATOM    113  CG2 VAL A   6     -19.171   0.021  -1.579  0.00  0.00    +0.002 C 
ATOM    114  CG1 VAL A   6     -17.259   1.467  -2.170  0.00  0.00    +0.002 C 
ENDBRANCH  59 112
ENDBRANCH   1  59
TORSDOF 49
REMARK  Name = ../refined-set-2016/3agl/3agl_pocket.pdb
REMARK  332 active torsions:
REMARK  status: ('A' for Active; 'I' for Inactive)
REMARK    1  A    between atoms: _1  and  _3
REMARK    2  A    between atoms: _3  and  _4
REMARK    3  A    between atoms: _3  and  _6
REMARK    4  A    between atoms: _6  and  _7
REMARK    5  A    between atoms: _10  and  _12
REMARK    6  A    between atoms: _12  and  _13
REMARK    7  A    between atoms: _12  and  _15
REMARK    8  A    between atoms: _15  and  _16
REMARK    9  A    between atoms: _19  and  _21
REMARK   10  A    between atoms: _21  and  _22
REMARK   11  A    between atoms: _24  and  _26
REMARK   12  A    between atoms: _26  and  _27
REMARK   13  A    between atoms: _26  and  _29
REMARK   14  A    between atoms: _29  and  _30
REMARK   15  A    between atoms: _33  and  _35
REMARK   16  A    between atoms: _35  and  _36
REMARK   17  A    between atoms: _38  and  _40
REMARK   18  A    between atoms: _40  and  _41
REMARK   19  A    between atoms: _40  and  _43
REMARK   20  A    between atoms: _43  and  _44
REMARK   21  A    between atoms: _46  and  _48
REMARK   22  A    between atoms: _48  and  _49
REMARK   23  A    between atoms: _48  and  _51
REMARK   24  A    between atoms: _51  and  _52
REMARK   25  A    between atoms: _58  and  _60
REMARK   26  A    between atoms: _60  and  _61
REMARK   27  A    between atoms: _63  and  _65
REMARK   28  A    between atoms: _65  and  _66
REMARK   29  A    between atoms: _65  and  _68
REMARK   30  A    between atoms: _68  and  _69
REMARK   31  A    between atoms: _69  and  _70
REMARK   32  A    between atoms: _70  and  _71
REMARK   33  A    between atoms: _80  and  _82
REMARK   34  A    between atoms: _82  and  _83
REMARK   35  A    between atoms: _82  and  _85
REMARK   36  A    between atoms: _88  and  _90
REMARK   37  A    between atoms: _90  and  _91
REMARK   38  A    between atoms: _90  and  _93
REMARK   39  A    between atoms: _93  and  _94
REMARK   40  A    between atoms: _94  and  _95
REMARK   41  A    between atoms: _97  and  _99
REMARK   42  A    between atoms: _99  and  _100
REMARK   43  A    between atoms: _99  and  _102
REMARK   44  A    between atoms: _102  and  _103
REMARK   45  A    between atoms: _106  and  _108
REMARK   46  A    between atoms: _108  and  _109
REMARK   47  A    between atoms: _108  and  _111
REMARK   48  A    between atoms: _111  and  _112
REMARK   49  A    between atoms: _117  and  _118
REMARK   50  A    between atoms: _120  and  _122
REMARK   51  A    between atoms: _122  and  _123
REMARK   52  A    between atoms: _126  and  _128
REMARK   53  A    between atoms: _128  and  _129
REMARK   54  A    between atoms: _128  and  _131
REMARK   55  A    between atoms: _131  and  _132
REMARK   56  A    between atoms: _132  and  _133
REMARK   57  A    between atoms: _135  and  _137
REMARK   58  A    between atoms: _137  and  _138
REMARK   59  A    between atoms: _137  and  _140
REMARK   60  A    between atoms: _140  and  _141
REMARK   61  A    between atoms: _141  and  _142
REMARK   62  A    between atoms: _142  and  _143
REMARK   63  A    between atoms: _143  and  _144
REMARK   64  A    between atoms: _148  and  _150
REMARK   65  A    between atoms: _150  and  _151
REMARK   66  A    between atoms: _150  and  _153
REMARK   67  A    between atoms: _153  and  _154
REMARK   68  A    between atoms: _157  and  _159
REMARK   69  A    between atoms: _159  and  _160
REMARK   70  A    between atoms: _159  and  _162
REMARK   71  A    between atoms: _162  and  _163
REMARK   72  A    between atoms: _166  and  _168
REMARK   73  A    between atoms: _168  and  _169
REMARK   74  A    between atoms: _168  and  _171
REMARK   75  A    between atoms: _171  and  _172
REMARK   76  A    between atoms: _175  and  _177
REMARK   77  A    between atoms: _177  and  _178
REMARK   78  A    between atoms: _177  and  _180
REMARK   79  A    between atoms: _180  and  _181
REMARK   80  A    between atoms: _181  and  _182
REMARK   81  A    between atoms: _182  and  _183
REMARK   82  A    between atoms: _183  and  _184
REMARK   83  A    between atoms: _188  and  _190
REMARK   84  A    between atoms: _190  and  _191
REMARK   85  A    between atoms: _190  and  _193
REMARK   86  A    between atoms: _196  and  _198
REMARK   87  A    between atoms: _198  and  _199
REMARK   88  A    between atoms: _198  and  _201
REMARK   89  A    between atoms: _201  and  _202
REMARK   90  A    between atoms: _205  and  _207
REMARK   91  A    between atoms: _207  and  _208
REMARK   92  A    between atoms: _207  and  _210
REMARK   93  A    between atoms: _210  and  _211
REMARK   94  A    between atoms: _211  and  _212
REMARK   95  A    between atoms: _217  and  _219
REMARK   96  A    between atoms: _219  and  _220
REMARK   97  A    between atoms: _219  and  _222
REMARK   98  A    between atoms: _222  and  _223
REMARK   99  A    between atoms: _228  and  _230
REMARK  100  A    between atoms: _230  and  _231
REMARK  101  A    between atoms: _230  and  _233
REMARK  102  A    between atoms: _233  and  _234
REMARK  103  A    between atoms: _237  and  _239
REMARK  104  A    between atoms: _239  and  _240
REMARK  105  A    between atoms: _239  and  _242
REMARK  106  A    between atoms: _242  and  _243
REMARK  107  A    between atoms: _243  and  _244
REMARK  108  A    between atoms: _247  and  _249
REMARK  109  A    between atoms: _249  and  _250
REMARK  110  A    between atoms: _249  and  _252
REMARK  111  A    between atoms: _252  and  _253
REMARK  112  A    between atoms: _256  and  _258
REMARK  113  A    between atoms: _258  and  _259
REMARK  114  A    between atoms: _258  and  _261
REMARK  115  A    between atoms: _264  and  _266
REMARK  116  A    between atoms: _266  and  _267
REMARK  117  A    between atoms: _266  and  _269
REMARK  118  A    between atoms: _269  and  _270
REMARK  119  A    between atoms: _270  and  _271
REMARK  120  A    between atoms: _271  and  _272
REMARK  121  A    between atoms: _272  and  _273
REMARK  122  A    between atoms: _277  and  _279
REMARK  123  A    between atoms: _279  and  _280
REMARK  124  A    between atoms: _279  and  _282
REMARK  125  A    between atoms: _282  and  _283
REMARK  126  A    between atoms: _286  and  _288
REMARK  127  A    between atoms: _288  and  _289
REMARK  128  A    between atoms: _288  and  _291
REMARK  129  A    between atoms: _291  and  _292
REMARK  130  A    between atoms: _292  and  _293
REMARK  131  A    between atoms: _296  and  _298
REMARK  132  A    between atoms: _298  and  _299
REMARK  133  A    between atoms: _298  and  _301
REMARK  134  A    between atoms: _301  and  _302
REMARK  135  A    between atoms: _302  and  _303
REMARK  136  A    between atoms: _305  and  _307
REMARK  137  A    between atoms: _307  and  _308
REMARK  138  A    between atoms: _307  and  _310
REMARK  139  A    between atoms: _313  and  _315
REMARK  140  A    between atoms: _315  and  _316
REMARK  141  A    between atoms: _315  and  _318
REMARK  142  A    between atoms: _318  and  _319
REMARK  143  A    between atoms: _319  and  _320
REMARK  144  A    between atoms: _322  and  _324
REMARK  145  A    between atoms: _324  and  _325
REMARK  146  A    between atoms: _324  and  _327
REMARK  147  A    between atoms: _327  and  _328
REMARK  148  A    between atoms: _328  and  _329
REMARK  149  A    between atoms: _332  and  _334
REMARK  150  A    between atoms: _334  and  _335
REMARK  151  A    between atoms: _334  and  _337
REMARK  152  A    between atoms: _337  and  _338
REMARK  153  A    between atoms: _343  and  _344
REMARK  154  A    between atoms: _346  and  _348
REMARK  155  A    between atoms: _348  and  _349
REMARK  156  A    between atoms: _348  and  _351
REMARK  157  A    between atoms: _355  and  _356
REMARK  158  A    between atoms: _361  and  _363
REMARK  159  A    between atoms: _363  and  _364
REMARK  160  A    between atoms: _366  and  _368
REMARK  161  A    between atoms: _368  and  _369
REMARK  162  A    between atoms: _371  and  _373
REMARK  163  A    between atoms: _373  and  _374
REMARK  164  A    between atoms: _373  and  _376
REMARK  165  A    between atoms: _376  and  _377
REMARK  166  A    between atoms: _377  and  _378
REMARK  167  A    between atoms: _381  and  _383
REMARK  168  A    between atoms: _383  and  _384
REMARK  169  A    between atoms: _383  and  _386
REMARK  170  A    between atoms: _386  and  _387
REMARK  171  A    between atoms: _387  and  _388
REMARK  172  A    between atoms: _390  and  _392
REMARK  173  A    between atoms: _392  and  _393
REMARK  174  A    between atoms: _392  and  _395
REMARK  175  A    between atoms: _395  and  _396
REMARK  176  A    between atoms: _402  and  _404
REMARK  177  A    between atoms: _404  and  _405
REMARK  178  A    between atoms: _404  and  _407
REMARK  179  A    between atoms: _407  and  _408
REMARK  180  A    between atoms: _410  and  _412
REMARK  181  A    between atoms: _412  and  _413
REMARK  182  A    between atoms: _412  and  _415
REMARK  183  A    between atoms: _415  and  _416
REMARK  184  A    between atoms: _419  and  _421
REMARK  185  A    between atoms: _421  and  _422
REMARK  186  A    between atoms: _421  and  _424
REMARK  187  A    between atoms: _424  and  _425
REMARK  188  A    between atoms: _425  and  _426
REMARK  189  A    between atoms: _426  and  _427
REMARK  190  A    between atoms: _436  and  _438
REMARK  191  A    between atoms: _438  and  _439
REMARK  192  A    between atoms: _438  and  _441
REMARK  193  A    between atoms: _441  and  _442
REMARK  194  A    between atoms: _447  and  _448
REMARK  195  A    between atoms: _450  and  _452
REMARK  196  A    between atoms: _452  and  _453
REMARK  197  A    between atoms: _452  and  _455
REMARK  198  A    between atoms: _455  and  _456
REMARK  199  A    between atoms: _459  and  _461
REMARK  200  A    between atoms: _461  and  _462
REMARK  201  A    between atoms: _461  and  _464
REMARK  202  A    between atoms: _464  and  _465
REMARK  203  A    between atoms: _468  and  _470
REMARK  204  A    between atoms: _470  and  _471
REMARK  205  A    between atoms: _470  and  _473
REMARK  206  A    between atoms: _473  and  _474
REMARK  207  A    between atoms: _474  and  _475
REMARK  208  A    between atoms: _475  and  _476
REMARK  209  A    between atoms: _476  and  _477
REMARK  210  A    between atoms: _482  and  _483
REMARK  211  A    between atoms: _488  and  _490
REMARK  212  A    between atoms: _490  and  _491
REMARK  213  A    between atoms: _490  and  _493
REMARK  214  A    between atoms: _493  and  _494
REMARK  215  A    between atoms: _494  and  _495
REMARK  216  A    between atoms: _498  and  _500
REMARK  217  A    between atoms: _500  and  _501
REMARK  218  A    between atoms: _500  and  _503
REMARK  219  A    between atoms: _503  and  _504
REMARK  220  A    between atoms: _509  and  _511
REMARK  221  A    between atoms: _511  and  _512
REMARK  222  A    between atoms: _511  and  _514
REMARK  223  A    between atoms: _514  and  _515
REMARK  224  A    between atoms: _518  and  _520
REMARK  225  A    between atoms: _520  and  _521
REMARK  226  A    between atoms: _520  and  _523
REMARK  227  A    between atoms: _523  and  _524
REMARK  228  A    between atoms: _527  and  _529
REMARK  229  A    between atoms: _529  and  _530
REMARK  230  A    between atoms: _529  and  _532
REMARK  231  A    between atoms: _532  and  _533
REMARK  232  A    between atoms: _536  and  _538
REMARK  233  A    between atoms: _538  and  _539
REMARK  234  A    between atoms: _538  and  _541
REMARK  235  A    between atoms: _541  and  _542
REMARK  236  A    between atoms: _542  and  _543
REMARK  237  A    between atoms: _548  and  _550
REMARK  238  A    between atoms: _550  and  _551
REMARK  239  A    between atoms: _550  and  _553
REMARK  240  A    between atoms: _556  and  _558
REMARK  241  A    between atoms: _558  and  _559
REMARK  242  A    between atoms: _558  and  _561
REMARK  243  A    between atoms: _561  and  _562
REMARK  244  A    between atoms: _565  and  _567
REMARK  245  A    between atoms: _567  and  _568
REMARK  246  A    between atoms: _567  and  _570
REMARK  247  A    between atoms: _570  and  _571
REMARK  248  A    between atoms: _574  and  _576
REMARK  249  A    between atoms: _576  and  _577
REMARK  250  A    between atoms: _576  and  _579
REMARK  251  A    between atoms: _579  and  _580
REMARK  252  A    between atoms: _586  and  _588
REMARK  253  A    between atoms: _588  and  _589
REMARK  254  A    between atoms: _591  and  _593
REMARK  255  A    between atoms: _593  and  _594
REMARK  256  A    between atoms: _593  and  _596
REMARK  257  A    between atoms: _596  and  _597
REMARK  258  A    between atoms: _603  and  _605
REMARK  259  A    between atoms: _605  and  _606
REMARK  260  A    between atoms: _605  and  _608
REMARK  261  A    between atoms: _610  and  _612
REMARK  262  A    between atoms: _612  and  _613
REMARK  263  A    between atoms: _615  and  _617
REMARK  264  A    between atoms: _617  and  _618
REMARK  265  A    between atoms: _617  and  _620
REMARK  266  A    between atoms: _620  and  _621
REMARK  267  A    between atoms: _625  and  _626
REMARK  268  A    between atoms: _631  and  _633
REMARK  269  A    between atoms: _633  and  _634
REMARK  270  A    between atoms: _633  and  _636
REMARK  271  A    between atoms: _636  and  _637
REMARK  272  A    between atoms: _637  and  _638
REMARK  273  A    between atoms: _641  and  _643
REMARK  274  A    between atoms: _643  and  _644
REMARK  275  A    between atoms: _643  and  _646
REMARK  276  A    between atoms: _646  and  _647
REMARK  277  A    between atoms: _652  and  _653
REMARK  278  A    between atoms: _655  and  _657
REMARK  279  A    between atoms: _657  and  _658
REMARK  280  A    between atoms: _657  and  _660
REMARK  281  A    between atoms: _663  and  _665
REMARK  282  A    between atoms: _665  and  _666
REMARK  283  A    between atoms: _665  and  _668
REMARK  284  A    between atoms: _668  and  _669
REMARK  285  A    between atoms: _672  and  _674
REMARK  286  A    between atoms: _674  and  _675
REMARK  287  A    between atoms: _674  and  _677
REMARK  288  A    between atoms: _677  and  _678
REMARK  289  A    between atoms: _678  and  _679
REMARK  290  A    between atoms: _682  and  _684
REMARK  291  A    between atoms: _684  and  _685
REMARK  292  A    between atoms: _684  and  _687
REMARK  293  A    between atoms: _687  and  _688
REMARK  294  A    between atoms: _688  and  _689
REMARK  295  A    between atoms: _691  and  _693
REMARK  296  A    between atoms: _693  and  _694
REMARK  297  A    between atoms: _696  and  _698
REMARK  298  A    between atoms: _698  and  _699
REMARK  299  A    between atoms: _698  and  _701
REMARK  300  A    between atoms: _701  and  _702
REMARK  301  A    between atoms: _707  and  _708
REMARK  302  A    between atoms: _711  and  _712
REMARK  303  A    between atoms: _718  and  _719
REMARK  304  A    between atoms: _724  and  _726
REMARK  305  A    between atoms: _726  and  _727
REMARK  306  A    between atoms: _726  and  _729
REMARK  307  A    between atoms: _729  and  _730
REMARK  308  A    between atoms: _736  and  _738
REMARK  309  A    between atoms: _738  and  _739
REMARK  310  A    between atoms: _738  and  _741
REMARK  311  A    between atoms: _741  and  _742
REMARK  312  A    between atoms: _748  and  _750
REMARK  313  A    between atoms: _750  and  _751
REMARK  314  A    between atoms: _750  and  _753
REMARK  315  A    between atoms: _753  and  _754
REMARK  316  A    between atoms: _757  and  _759
REMARK  317  A    between atoms: _759  and  _760
REMARK  318  A    between atoms: _759  and  _762
REMARK  319  A    between atoms: _762  and  _763
REMARK  320  A    between atoms: _768  and  _770
REMARK  321  A    between atoms: _770  and  _771
REMARK  322  A    between atoms: _770  and  _773
REMARK  323  A    between atoms: _773  and  _774
REMARK  324  A    between atoms: _780  and  _782
REMARK  325  A    between atoms: _782  and  _783
REMARK  326  A    between atoms: _782  and  _785
REMARK  327  A    between atoms: _785  and  _786
REMARK  328  A    between atoms: _789  and  _791
REMARK  329  A    between atoms: _791  and  _792
REMARK  330  A    between atoms: _791  and  _794
REMARK  331  A    between atoms: _794  and  _795
REMARK  332  A    between atoms: _800  and  _801
REMARK                            x       y       z     vdW  Elec       q    Type
REMARK                         _______ _______ _______ _____ _____    ______ ____
ROOT
ATOM      1  CA  ARG A   2     -27.878  -4.838  12.631  0.00  0.00    +0.137 C 
ENDROOT
BRANCH   1   3
ATOM      2  C   LEU A   1     -26.681  -6.506  11.313  0.00  0.00    +0.238 C 
ATOM      3  N   ARG A   2     -26.805  -5.241  11.711  0.00  0.00    -0.298 N 
ATOM      4  H   ARG A   2     -26.132  -4.527  11.365  0.00  0.00    +0.150 HD
ATOM      5  O   LEU A   1     -27.437  -7.409  11.698  0.00  0.00    -0.274 OA
BRANCH   2   6
ATOM      6  CA  LEU A   1     -25.571  -6.808  10.305  0.00  0.00    +0.145 C 
BRANCH   6   7
ATOM      7  N   LEU A   1     -25.687  -5.946   9.115  0.00  0.00    -0.238 NA
ATOM      8  H   LEU A   1     -24.908  -5.293   8.897  0.00  0.00    +0.142 HD
ENDBRANCH   6   7
BRANCH   6   9
ATOM      9  CB  LEU A   1     -24.198  -6.658  10.991  0.00  0.00    +0.026 C 
BRANCH   9  10
ATOM     10  CG  LEU A   1     -23.935  -7.468  12.289  0.00  0.00    +0.002 C 
ATOM     11  CD2 LEU A   1     -22.580  -7.100  12.883  0.00  0.00    +0.000 C 
ATOM     12  CD1 LEU A   1     -24.010  -8.980  12.031  0.00  0.00    +0.000 C 
ENDBRANCH   9  10
ENDBRANCH   6   9
ENDBRANCH   2   6
ENDBRANCH   1   3
BRANCH   1  13
ATOM     13  C   ARG A   2     -29.272  -5.253  12.115  0.00  0.00    +0.227 C 
ATOM     14  O   ARG A   2     -30.084  -5.732  12.883  0.00  0.00    -0.286 OA
ENDBRANCH   1  13
BRANCH   1  15
ATOM     15  CB  ARG A   2     -27.815  -3.323  12.907  0.00  0.00    +0.031 C 
BRANCH  15  16
ATOM     16  CG  ARG A   2     -26.694  -2.905  13.897  0.00  0.00    +0.045 C 
BRANCH  16  17
ATOM     17  CD  ARG A   2     -27.055  -3.356  15.317  0.00  0.00    +0.174 C 
BRANCH  17  18
ATOM     18  NE  ARG A   2     -26.073  -2.961  16.337  0.00  0.00    -0.265 N 
ATOM     19  CZ  ARG A   2     -26.166  -1.865  17.092  0.00  0.00    +0.342 C 
ATOM     20  NH2 ARG A   2     -25.230  -1.617  18.000  0.00  0.00    -0.292 N 
ATOM     21 HH21 ARG A   2     -25.294  -0.765  18.593  0.00  0.00    +0.255 HD
ATOM     22 HH22 ARG A   2     -24.433  -2.274  18.118  0.00  0.00    +0.255 HD
ATOM     23  NH1 ARG A   2     -27.172  -0.995  16.927  0.00  0.00    -0.292 N 
ATOM     24 HH11 ARG A   2     -27.228  -0.146  17.525  0.00  0.00    +0.255 HD
ATOM     25 HH12 ARG A   2     -27.896  -1.169  16.201  0.00  0.00    +0.255 HD
ATOM     26  HE  ARG A   2     -25.249  -3.579  16.480  0.00  0.00    +0.259 HD
ENDBRANCH  17  18
ENDBRANCH  16  17
ENDBRANCH  15  16
ENDBRANCH   1  15
TORSDOF 10
REMARK  Name = ../refined-set-2016/3agl/3agl_pocket.pdb
REMARK  332 active torsions:
REMARK  status: ('A' for Active; 'I' for Inactive)
REMARK    1  A    between atoms: _1  and  _3
REMARK    2  A    between atoms: _3  and  _4
REMARK    3  A    between atoms: _3  and  _6
REMARK    4  A    between atoms: _6  and  _7
REMARK    5  A    between atoms: _10  and  _12
REMARK    6  A    between atoms: _12  and  _13
REMARK    7  A    between atoms: _12  and  _15
REMARK    8  A    between atoms: _15  and  _16
REMARK    9  A    between atoms: _19  and  _21
REMARK   10  A    between atoms: _21  and  _22
REMARK   11  A    between atoms: _24  and  _26
REMARK   12  A    between atoms: _26  and  _27
REMARK   13  A    between atoms: _26  and  _29
REMARK   14  A    between atoms: _29  and  _30
REMARK   15  A    between atoms: _33  and  _35
REMARK   16  A    between atoms: _35  and  _36
REMARK   17  A    between atoms: _38  and  _40
REMARK   18  A    between atoms: _40  and  _41
REMARK   19  A    between atoms: _40  and  _43
REMARK   20  A    between atoms: _43  and  _44
REMARK   21  A    between atoms: _46  and  _48
REMARK   22  A    between atoms: _48  and  _49
REMARK   23  A    between atoms: _48  and  _51
REMARK   24  A    between atoms: _51  and  _52
REMARK   25  A    between atoms: _58  and  _60
REMARK   26  A    between atoms: _60  and  _61
REMARK   27  A    between atoms: _63  and  _65
REMARK   28  A    between atoms: _65  and  _66
REMARK   29  A    between atoms: _65  and  _68
REMARK   30  A    between atoms: _68  and  _69
REMARK   31  A    between atoms: _69  and  _70
REMARK   32  A    between atoms: _70  and  _71
REMARK   33  A    between atoms: _80  and  _82
REMARK   34  A    between atoms: _82  and  _83
REMARK   35  A    between atoms: _82  and  _85
REMARK   36  A    between atoms: _88  and  _90
REMARK   37  A    between atoms: _90  and  _91
REMARK   38  A    between atoms: _90  and  _93
REMARK   39  A    between atoms: _93  and  _94
REMARK   40  A    between atoms: _94  and  _95
REMARK   41  A    between atoms: _97  and  _99
REMARK   42  A    between atoms: _99  and  _100
REMARK   43  A    between atoms: _99  and  _102
REMARK   44  A    between atoms: _102  and  _103
REMARK   45  A    between atoms: _106  and  _108
REMARK   46  A    between atoms: _108  and  _109
REMARK   47  A    between atoms: _108  and  _111
REMARK   48  A    between atoms: _111  and  _112
REMARK   49  A    between atoms: _117  and  _118
REMARK   50  A    between atoms: _120  and  _122
REMARK   51  A    between atoms: _122  and  _123
REMARK   52  A    between atoms: _126  and  _128
REMARK   53  A    between atoms: _128  and  _129
REMARK   54  A    between atoms: _128  and  _131
REMARK   55  A    between atoms: _131  and  _132
REMARK   56  A    between atoms: _132  and  _133
REMARK   57  A    between atoms: _135  and  _137
REMARK   58  A    between atoms: _137  and  _138
REMARK   59  A    between atoms: _137  and  _140
REMARK   60  A    between atoms: _140  and  _141
REMARK   61  A    between atoms: _141  and  _142
REMARK   62  A    between atoms: _142  and  _143
REMARK   63  A    between atoms: _143  and  _144
REMARK   64  A    between atoms: _148  and  _150
REMARK   65  A    between atoms: _150  and  _151
REMARK   66  A    between atoms: _150  and  _153
REMARK   67  A    between atoms: _153  and  _154
REMARK   68  A    between atoms: _157  and  _159
REMARK   69  A    between atoms: _159  and  _160
REMARK   70  A    between atoms: _159  and  _162
REMARK   71  A    between atoms: _162  and  _163
REMARK   72  A    between atoms: _166  and  _168
REMARK   73  A    between atoms: _168  and  _169
REMARK   74  A    between atoms: _168  and  _171
REMARK   75  A    between atoms: _171  and  _172
REMARK   76  A    between atoms: _175  and  _177
REMARK   77  A    between atoms: _177  and  _178
REMARK   78  A    between atoms: _177  and  _180
REMARK   79  A    between atoms: _180  and  _181
REMARK   80  A    between atoms: _181  and  _182
REMARK   81  A    between atoms: _182  and  _183
REMARK   82  A    between atoms: _183  and  _184
REMARK   83  A    between atoms: _188  and  _190
REMARK   84  A    between atoms: _190  and  _191
REMARK   85  A    between atoms: _190  and  _193
REMARK   86  A    between atoms: _196  and  _198
REMARK   87  A    between atoms: _198  and  _199
REMARK   88  A    between atoms: _198  and  _201
REMARK   89  A    between atoms: _201  and  _202
REMARK   90  A    between atoms: _205  and  _207
REMARK   91  A    between atoms: _207  and  _208
REMARK   92  A    between atoms: _207  and  _210
REMARK   93  A    between atoms: _210  and  _211
REMARK   94  A    between atoms: _211  and  _212
REMARK   95  A    between atoms: _217  and  _219
REMARK   96  A    between atoms: _219  and  _220
REMARK   97  A    between atoms: _219  and  _222
REMARK   98  A    between atoms: _222  and  _223
REMARK   99  A    between atoms: _228  and  _230
REMARK  100  A    between atoms: _230  and  _231
REMARK  101  A    between atoms: _230  and  _233
REMARK  102  A    between atoms: _233  and  _234
REMARK  103  A    between atoms: _237  and  _239
REMARK  104  A    between atoms: _239  and  _240
REMARK  105  A    between atoms: _239  and  _242
REMARK  106  A    between atoms: _242  and  _243
REMARK  107  A    between atoms: _243  and  _244
REMARK  108  A    between atoms: _247  and  _249
REMARK  109  A    between atoms: _249  and  _250
REMARK  110  A    between atoms: _249  and  _252
REMARK  111  A    between atoms: _252  and  _253
REMARK  112  A    between atoms: _256  and  _258
REMARK  113  A    between atoms: _258  and  _259
REMARK  114  A    between atoms: _258  and  _261
REMARK  115  A    between atoms: _264  and  _266
REMARK  116  A    between atoms: _266  and  _267
REMARK  117  A    between atoms: _266  and  _269
REMARK  118  A    between atoms: _269  and  _270
REMARK  119  A    between atoms: _270  and  _271
REMARK  120  A    between atoms: _271  and  _272
REMARK  121  A    between atoms: _272  and  _273
REMARK  122  A    between atoms: _277  and  _279
REMARK  123  A    between atoms: _279  and  _280
REMARK  124  A    between atoms: _279  and  _282
REMARK  125  A    between atoms: _282  and  _283
REMARK  126  A    between atoms: _286  and  _288
REMARK  127  A    between atoms: _288  and  _289
REMARK  128  A    between atoms: _288  and  _291
REMARK  129  A    between atoms: _291  and  _292
REMARK  130  A    between atoms: _292  and  _293
REMARK  131  A    between atoms: _296  and  _298
REMARK  132  A    between atoms: _298  and  _299
REMARK  133  A    between atoms: _298  and  _301
REMARK  134  A    between atoms: _301  and  _302
REMARK  135  A    between atoms: _302  and  _303
REMARK  136  A    between atoms: _305  and  _307
REMARK  137  A    between atoms: _307  and  _308
REMARK  138  A    between atoms: _307  and  _310
REMARK  139  A    between atoms: _313  and  _315
REMARK  140  A    between atoms: _315  and  _316
REMARK  141  A    between atoms: _315  and  _318
REMARK  142  A    between atoms: _318  and  _319
REMARK  143  A    between atoms: _319  and  _320
REMARK  144  A    between atoms: _322  and  _324
REMARK  145  A    between atoms: _324  and  _325
REMARK  146  A    between atoms: _324  and  _327
REMARK  147  A    between atoms: _327  and  _328
REMARK  148  A    between atoms: _328  and  _329
REMARK  149  A    between atoms: _332  and  _334
REMARK  150  A    between atoms: _334  and  _335
REMARK  151  A    between atoms: _334  and  _337
REMARK  152  A    between atoms: _337  and  _338
REMARK  153  A    between atoms: _343  and  _344
REMARK  154  A    between atoms: _346  and  _348
REMARK  155  A    between atoms: _348  and  _349
REMARK  156  A    between atoms: _348  and  _351
REMARK  157  A    between atoms: _355  and  _356
REMARK  158  A    between atoms: _361  and  _363
REMARK  159  A    between atoms: _363  and  _364
REMARK  160  A    between atoms: _366  and  _368
REMARK  161  A    between atoms: _368  and  _369
REMARK  162  A    between atoms: _371  and  _373
REMARK  163  A    between atoms: _373  and  _374
REMARK  164  A    between atoms: _373  and  _376
REMARK  165  A    between atoms: _376  and  _377
REMARK  166  A    between atoms: _377  and  _378
REMARK  167  A    between atoms: _381  and  _383
REMARK  168  A    between atoms: _383  and  _384
REMARK  169  A    between atoms: _383  and  _386
REMARK  170  A    between atoms: _386  and  _387
REMARK  171  A    between atoms: _387  and  _388
REMARK  172  A    between atoms: _390  and  _392
REMARK  173  A    between atoms: _392  and  _393
REMARK  174  A    between atoms: _392  and  _395
REMARK  175  A    between atoms: _395  and  _396
REMARK  176  A    between atoms: _402  and  _404
REMARK  177  A    between atoms: _404  and  _405
REMARK  178  A    between atoms: _404  and  _407
REMARK  179  A    between atoms: _407  and  _408
REMARK  180  A    between atoms: _410  and  _412
REMARK  181  A    between atoms: _412  and  _413
REMARK  182  A    between atoms: _412  and  _415
REMARK  183  A    between atoms: _415  and  _416
REMARK  184  A    between atoms: _419  and  _421
REMARK  185  A    between atoms: _421  and  _422
REMARK  186  A    between atoms: _421  and  _424
REMARK  187  A    between atoms: _424  and  _425
REMARK  188  A    between atoms: _425  and  _426
REMARK  189  A    between atoms: _426  and  _427
REMARK  190  A    between atoms: _436  and  _438
REMARK  191  A    between atoms: _438  and  _439
REMARK  192  A    between atoms: _438  and  _441
REMARK  193  A    between atoms: _441  and  _442
REMARK  194  A    between atoms: _447  and  _448
REMARK  195  A    between atoms: _450  and  _452
REMARK  196  A    between atoms: _452  and  _453
REMARK  197  A    between atoms: _452  and  _455
REMARK  198  A    between atoms: _455  and  _456
REMARK  199  A    between atoms: _459  and  _461
REMARK  200  A    between atoms: _461  and  _462
REMARK  201  A    between atoms: _461  and  _464
REMARK  202  A    between atoms: _464  and  _465
REMARK  203  A    between atoms: _468  and  _470
REMARK  204  A    between atoms: _470  and  _471
REMARK  205  A    between atoms: _470  and  _473
REMARK  206  A    between atoms: _473  and  _474
REMARK  207  A    between atoms: _474  and  _475
REMARK  208  A    between atoms: _475  and  _476
REMARK  209  A    between atoms: _476  and  _477
REMARK  210  A    between atoms: _482  and  _483
REMARK  211  A    between atoms: _488  and  _490
REMARK  212  A    between atoms: _490  and  _491
REMARK  213  A    between atoms: _490  and  _493
REMARK  214  A    between atoms: _493  and  _494
REMARK  215  A    between atoms: _494  and  _495
REMARK  216  A    between atoms: _498  and  _500
REMARK  217  A    between atoms: _500  and  _501
REMARK  218  A    between atoms: _500  and  _503
REMARK  219  A    between atoms: _503  and  _504
REMARK  220  A    between atoms: _509  and  _511
REMARK  221  A    between atoms: _511  and  _512
REMARK  222  A    between atoms: _511  and  _514
REMARK  223  A    between atoms: _514  and  _515
REMARK  224  A    between atoms: _518  and  _520
REMARK  225  A    between atoms: _520  and  _521
REMARK  226  A    between atoms: _520  and  _523
REMARK  227  A    between atoms: _523  and  _524
REMARK  228  A    between atoms: _527  and  _529
REMARK  229  A    between atoms: _529  and  _530
REMARK  230  A    between atoms: _529  and  _532
REMARK  231  A    between atoms: _532  and  _533
REMARK  232  A    between atoms: _536  and  _538
REMARK  233  A    between atoms: _538  and  _539
REMARK  234  A    between atoms: _538  and  _541
REMARK  235  A    between atoms: _541  and  _542
REMARK  236  A    between atoms: _542  and  _543
REMARK  237  A    between atoms: _548  and  _550
REMARK  238  A    between atoms: _550  and  _551
REMARK  239  A    between atoms: _550  and  _553
REMARK  240  A    between atoms: _556  and  _558
REMARK  241  A    between atoms: _558  and  _559
REMARK  242  A    between atoms: _558  and  _561
REMARK  243  A    between atoms: _561  and  _562
REMARK  244  A    between atoms: _565  and  _567
REMARK  245  A    between atoms: _567  and  _568
REMARK  246  A    between atoms: _567  and  _570
REMARK  247  A    between atoms: _570  and  _571
REMARK  248  A    between atoms: _574  and  _576
REMARK  249  A    between atoms: _576  and  _577
REMARK  250  A    between atoms: _576  and  _579
REMARK  251  A    between atoms: _579  and  _580
REMARK  252  A    between atoms: _586  and  _588
REMARK  253  A    between atoms: _588  and  _589
REMARK  254  A    between atoms: _591  and  _593
REMARK  255  A    between atoms: _593  and  _594
REMARK  256  A    between atoms: _593  and  _596
REMARK  257  A    between atoms: _596  and  _597
REMARK  258  A    between atoms: _603  and  _605
REMARK  259  A    between atoms: _605  and  _606
REMARK  260  A    between atoms: _605  and  _608
REMARK  261  A    between atoms: _610  and  _612
REMARK  262  A    between atoms: _612  and  _613
REMARK  263  A    between atoms: _615  and  _617
REMARK  264  A    between atoms: _617  and  _618
REMARK  265  A    between atoms: _617  and  _620
REMARK  266  A    between atoms: _620  and  _621
REMARK  267  A    between atoms: _625  and  _626
REMARK  268  A    between atoms: _631  and  _633
REMARK  269  A    between atoms: _633  and  _634
REMARK  270  A    between atoms: _633  and  _636
REMARK  271  A    between atoms: _636  and  _637
REMARK  272  A    between atoms: _637  and  _638
REMARK  273  A    between atoms: _641  and  _643
REMARK  274  A    between atoms: _643  and  _644
REMARK  275  A    between atoms: _643  and  _646
REMARK  276  A    between atoms: _646  and  _647
REMARK  277  A    between atoms: _652  and  _653
REMARK  278  A    between atoms: _655  and  _657
REMARK  279  A    between atoms: _657  and  _658
REMARK  280  A    between atoms: _657  and  _660
REMARK  281  A    between atoms: _663  and  _665
REMARK  282  A    between atoms: _665  and  _666
REMARK  283  A    between atoms: _665  and  _668
REMARK  284  A    between atoms: _668  and  _669
REMARK  285  A    between atoms: _672  and  _674
REMARK  286  A    between atoms: _674  and  _675
REMARK  287  A    between atoms: _674  and  _677
REMARK  288  A    between atoms: _677  and  _678
REMARK  289  A    between atoms: _678  and  _679
REMARK  290  A    between atoms: _682  and  _684
REMARK  291  A    between atoms: _684  and  _685
REMARK  292  A    between atoms: _684  and  _687
REMARK  293  A    between atoms: _687  and  _688
REMARK  294  A    between atoms: _688  and  _689
REMARK  295  A    between atoms: _691  and  _693
REMARK  296  A    between atoms: _693  and  _694
REMARK  297  A    between atoms: _696  and  _698
REMARK  298  A    between atoms: _698  and  _699
REMARK  299  A    between atoms: _698  and  _701
REMARK  300  A    between atoms: _701  and  _702
REMARK  301  A    between atoms: _707  and  _708
REMARK  302  A    between atoms: _711  and  _712
REMARK  303  A    between atoms: _718  and  _719
REMARK  304  A    between atoms: _724  and  _726
REMARK  305  A    between atoms: _726  and  _727
REMARK  306  A    between atoms: _726  and  _729
REMARK  307  A    between atoms: _729  and  _730
REMARK  308  A    between atoms: _736  and  _738
REMARK  309  A    between atoms: _738  and  _739
REMARK  310  A    between atoms: _738  and  _741
REMARK  311  A    between atoms: _741  and  _742
REMARK  312  A    between atoms: _748  and  _750
REMARK  313  A    between atoms: _750  and  _751
REMARK  314  A    between atoms: _750  and  _753
REMARK  315  A    between atoms: _753  and  _754
REMARK  316  A    between atoms: _757  and  _759
REMARK  317  A    between atoms: _759  and  _760
REMARK  318  A    between atoms: _759  and  _762
REMARK  319  A    between atoms: _762  and  _763
REMARK  320  A    between atoms: _768  and  _770
REMARK  321  A    between atoms: _770  and  _771
REMARK  322  A    between atoms: _770  and  _773
REMARK  323  A    between atoms: _773  and  _774
REMARK  324  A    between atoms: _780  and  _782
REMARK  325  A    between atoms: _782  and  _783
REMARK  326  A    between atoms: _782  and  _785
REMARK  327  A    between atoms: _785  and  _786
REMARK  328  A    between atoms: _789  and  _791
REMARK  329  A    between atoms: _791  and  _792
REMARK  330  A    between atoms: _791  and  _794
REMARK  331  A    between atoms: _794  and  _795
REMARK  332  A    between atoms: _800  and  _801
REMARK                            x       y       z     vdW  Elec       q    Type
REMARK                         _______ _______ _______ _____ _____    ______ ____
ROOT
ATOM      1  CG  TYR A   1      -7.259  -0.195   9.507  0.00  0.00    -0.020 A 
ATOM      2  CD2 TYR A   1      -8.406  -0.742  10.086  0.00  0.00    -0.001 A 
ATOM      3  CE2 TYR A   1      -9.655  -0.283   9.759  0.00  0.00    +0.036 A 
ATOM      4  CZ  TYR A   1      -9.786   0.759   8.872  0.00  0.00    +0.134 A 
ATOM      5  CE1 TYR A   1      -8.674   1.337   8.286  0.00  0.00    +0.036 A 
ATOM      6  CD1 TYR A   1      -7.414   0.854   8.597  0.00  0.00    -0.001 A 
ENDROOT
BRANCH   4   7
ATOM      7  OH  TYR A   1     -11.025   1.210   8.564  0.00  0.00    -0.506 OA
ATOM      8  HH  TYR A   1     -10.952   1.956   7.918  0.00  0.00    +0.292 HD
ENDBRANCH   4   7
BRANCH   1   9
ATOM      9  CB  TYR A   1      -5.894  -0.723   9.858  0.00  0.00    +0.051 C 
BRANCH   9  10
ATOM     10  CA  TYR A   1      -5.011   0.319  10.535  0.00  0.00    +0.137 C 
BRANCH  10  11
ATOM     11  N   TYR A   1      -3.736  -0.270  10.950  0.00  0.00    -0.239 NA
ATOM     12  H   TYR A   1      -3.696  -1.282  11.184  0.00  0.00    +0.142 HD
ENDBRANCH  10  11
BRANCH  10  13
ATOM     13  C   TYR A   1      -5.759   1.029  11.682  0.00  0.00    +0.224 C 
ATOM     14  O   TYR A   1      -6.134   2.205  11.547  0.00  0.00    -0.287 OA
ENDBRANCH  10  13
ENDBRANCH   9  10
ENDBRANCH   1   9
TORSDOF 5
REMARK  Name = ../refined-set-2016/3agl/3agl_pocket.pdb
REMARK  332 active torsions:
REMARK  status: ('A' for Active; 'I' for Inactive)
REMARK    1  A    between atoms: _1  and  _3
REMARK    2  A    between atoms: _3  and  _4
REMARK    3  A    between atoms: _3  and  _6
REMARK    4  A    between atoms: _6  and  _7
REMARK    5  A    between atoms: _10  and  _12
REMARK    6  A    between atoms: _12  and  _13
REMARK    7  A    between atoms: _12  and  _15
REMARK    8  A    between atoms: _15  and  _16
REMARK    9  A    between atoms: _19  and  _21
REMARK   10  A    between atoms: _21  and  _22
REMARK   11  A    between atoms: _24  and  _26
REMARK   12  A    between atoms: _26  and  _27
REMARK   13  A    between atoms: _26  and  _29
REMARK   14  A    between atoms: _29  and  _30
REMARK   15  A    between atoms: _33  and  _35
REMARK   16  A    between atoms: _35  and  _36
REMARK   17  A    between atoms: _38  and  _40
REMARK   18  A    between atoms: _40  and  _41
REMARK   19  A    between atoms: _40  and  _43
REMARK   20  A    between atoms: _43  and  _44
REMARK   21  A    between atoms: _46  and  _48
REMARK   22  A    between atoms: _48  and  _49
REMARK   23  A    between atoms: _48  and  _51
REMARK   24  A    between atoms: _51  and  _52
REMARK   25  A    between atoms: _58  and  _60
REMARK   26  A    between atoms: _60  and  _61
REMARK   27  A    between atoms: _63  and  _65
REMARK   28  A    between atoms: _65  and  _66
REMARK   29  A    between atoms: _65  and  _68
REMARK   30  A    between atoms: _68  and  _69
REMARK   31  A    between atoms: _69  and  _70
REMARK   32  A    between atoms: _70  and  _71
REMARK   33  A    between atoms: _80  and  _82
REMARK   34  A    between atoms: _82  and  _83
REMARK   35  A    between atoms: _82  and  _85
REMARK   36  A    between atoms: _88  and  _90
REMARK   37  A    between atoms: _90  and  _91
REMARK   38  A    between atoms: _90  and  _93
REMARK   39  A    between atoms: _93  and  _94
REMARK   40  A    between atoms: _94  and  _95
REMARK   41  A    between atoms: _97  and  _99
REMARK   42  A    between atoms: _99  and  _100
REMARK   43  A    between atoms: _99  and  _102
REMARK   44  A    between atoms: _102  and  _103
REMARK   45  A    between atoms: _106  and  _108
REMARK   46  A    between atoms: _108  and  _109
REMARK   47  A    between atoms: _108  and  _111
REMARK   48  A    between atoms: _111  and  _112
REMARK   49  A    between atoms: _117  and  _118
REMARK   50  A    between atoms: _120  and  _122
REMARK   51  A    between atoms: _122  and  _123
REMARK   52  A    between atoms: _126  and  _128
REMARK   53  A    between atoms: _128  and  _129
REMARK   54  A    between atoms: _128  and  _131
REMARK   55  A    between atoms: _131  and  _132
REMARK   56  A    between atoms: _132  and  _133
REMARK   57  A    between atoms: _135  and  _137
REMARK   58  A    between atoms: _137  and  _138
REMARK   59  A    between atoms: _137  and  _140
REMARK   60  A    between atoms: _140  and  _141
REMARK   61  A    between atoms: _141  and  _142
REMARK   62  A    between atoms: _142  and  _143
REMARK   63  A    between atoms: _143  and  _144
REMARK   64  A    between atoms: _148  and  _150
REMARK   65  A    between atoms: _150  and  _151
REMARK   66  A    between atoms: _150  and  _153
REMARK   67  A    between atoms: _153  and  _154
REMARK   68  A    between atoms: _157  and  _159
REMARK   69  A    between atoms: _159  and  _160
REMARK   70  A    between atoms: _159  and  _162
REMARK   71  A    between atoms: _162  and  _163
REMARK   72  A    between atoms: _166  and  _168
REMARK   73  A    between atoms: _168  and  _169
REMARK   74  A    between atoms: _168  and  _171
REMARK   75  A    between atoms: _171  and  _172
REMARK   76  A    between atoms: _175  and  _177
REMARK   77  A    between atoms: _177  and  _178
REMARK   78  A    between atoms: _177  and  _180
REMARK   79  A    between atoms: _180  and  _181
REMARK   80  A    between atoms: _181  and  _182
REMARK   81  A    between atoms: _182  and  _183
REMARK   82  A    between atoms: _183  and  _184
REMARK   83  A    between atoms: _188  and  _190
REMARK   84  A    between atoms: _190  and  _191
REMARK   85  A    between atoms: _190  and  _193
REMARK   86  A    between atoms: _196  and  _198
REMARK   87  A    between atoms: _198  and  _199
REMARK   88  A    between atoms: _198  and  _201
REMARK   89  A    between atoms: _201  and  _202
REMARK   90  A    between atoms: _205  and  _207
REMARK   91  A    between atoms: _207  and  _208
REMARK   92  A    between atoms: _207  and  _210
REMARK   93  A    between atoms: _210  and  _211
REMARK   94  A    between atoms: _211  and  _212
REMARK   95  A    between atoms: _217  and  _219
REMARK   96  A    between atoms: _219  and  _220
REMARK   97  A    between atoms: _219  and  _222
REMARK   98  A    between atoms: _222  and  _223
REMARK   99  A    between atoms: _228  and  _230
REMARK  100  A    between atoms: _230  and  _231
REMARK  101  A    between atoms: _230  and  _233
REMARK  102  A    between atoms: _233  and  _234
REMARK  103  A    between atoms: _237  and  _239
REMARK  104  A    between atoms: _239  and  _240
REMARK  105  A    between atoms: _239  and  _242
REMARK  106  A    between atoms: _242  and  _243
REMARK  107  A    between atoms: _243  and  _244
REMARK  108  A    between atoms: _247  and  _249
REMARK  109  A    between atoms: _249  and  _250
REMARK  110  A    between atoms: _249  and  _252
REMARK  111  A    between atoms: _252  and  _253
REMARK  112  A    between atoms: _256  and  _258
REMARK  113  A    between atoms: _258  and  _259
REMARK  114  A    between atoms: _258  and  _261
REMARK  115  A    between atoms: _264  and  _266
REMARK  116  A    between atoms: _266  and  _267
REMARK  117  A    between atoms: _266  and  _269
REMARK  118  A    between atoms: _269  and  _270
REMARK  119  A    between atoms: _270  and  _271
REMARK  120  A    between atoms: _271  and  _272
REMARK  121  A    between atoms: _272  and  _273
REMARK  122  A    between atoms: _277  and  _279
REMARK  123  A    between atoms: _279  and  _280
REMARK  124  A    between atoms: _279  and  _282
REMARK  125  A    between atoms: _282  and  _283
REMARK  126  A    between atoms: _286  and  _288
REMARK  127  A    between atoms: _288  and  _289
REMARK  128  A    between atoms: _288  and  _291
REMARK  129  A    between atoms: _291  and  _292
REMARK  130  A    between atoms: _292  and  _293
REMARK  131  A    between atoms: _296  and  _298
REMARK  132  A    between atoms: _298  and  _299
REMARK  133  A    between atoms: _298  and  _301
REMARK  134  A    between atoms: _301  and  _302
REMARK  135  A    between atoms: _302  and  _303
REMARK  136  A    between atoms: _305  and  _307
REMARK  137  A    between atoms: _307  and  _308
REMARK  138  A    between atoms: _307  and  _310
REMARK  139  A    between atoms: _313  and  _315
REMARK  140  A    between atoms: _315  and  _316
REMARK  141  A    between atoms: _315  and  _318
REMARK  142  A    between atoms: _318  and  _319
REMARK  143  A    between atoms: _319  and  _320
REMARK  144  A    between atoms: _322  and  _324
REMARK  145  A    between atoms: _324  and  _325
REMARK  146  A    between atoms: _324  and  _327
REMARK  147  A    between atoms: _327  and  _328
REMARK  148  A    between atoms: _328  and  _329
REMARK  149  A    between atoms: _332  and  _334
REMARK  150  A    between atoms: _334  and  _335
REMARK  151  A    between atoms: _334  and  _337
REMARK  152  A    between atoms: _337  and  _338
REMARK  153  A    between atoms: _343  and  _344
REMARK  154  A    between atoms: _346  and  _348
REMARK  155  A    between atoms: _348  and  _349
REMARK  156  A    between atoms: _348  and  _351
REMARK  157  A    between atoms: _355  and  _356
REMARK  158  A    between atoms: _361  and  _363
REMARK  159  A    between atoms: _363  and  _364
REMARK  160  A    between atoms: _366  and  _368
REMARK  161  A    between atoms: _368  and  _369
REMARK  162  A    between atoms: _371  and  _373
REMARK  163  A    between atoms: _373  and  _374
REMARK  164  A    between atoms: _373  and  _376
REMARK  165  A    between atoms: _376  and  _377
REMARK  166  A    between atoms: _377  and  _378
REMARK  167  A    between atoms: _381  and  _383
REMARK  168  A    between atoms: _383  and  _384
REMARK  169  A    between atoms: _383  and  _386
REMARK  170  A    between atoms: _386  and  _387
REMARK  171  A    between atoms: _387  and  _388
REMARK  172  A    between atoms: _390  and  _392
REMARK  173  A    between atoms: _392  and  _393
REMARK  174  A    between atoms: _392  and  _395
REMARK  175  A    between atoms: _395  and  _396
REMARK  176  A    between atoms: _402  and  _404
REMARK  177  A    between atoms: _404  and  _405
REMARK  178  A    between atoms: _404  and  _407
REMARK  179  A    between atoms: _407  and  _408
REMARK  180  A    between atoms: _410  and  _412
REMARK  181  A    between atoms: _412  and  _413
REMARK  182  A    between atoms: _412  and  _415
REMARK  183  A    between atoms: _415  and  _416
REMARK  184  A    between atoms: _419  and  _421
REMARK  185  A    between atoms: _421  and  _422
REMARK  186  A    between atoms: _421  and  _424
REMARK  187  A    between atoms: _424  and  _425
REMARK  188  A    between atoms: _425  and  _426
REMARK  189  A    between atoms: _426  and  _427
REMARK  190  A    between atoms: _436  and  _438
REMARK  191  A    between atoms: _438  and  _439
REMARK  192  A    between atoms: _438  and  _441
REMARK  193  A    between atoms: _441  and  _442
REMARK  194  A    between atoms: _447  and  _448
REMARK  195  A    between atoms: _450  and  _452
REMARK  196  A    between atoms: _452  and  _453
REMARK  197  A    between atoms: _452  and  _455
REMARK  198  A    between atoms: _455  and  _456
REMARK  199  A    between atoms: _459  and  _461
REMARK  200  A    between atoms: _461  and  _462
REMARK  201  A    between atoms: _461  and  _464
REMARK  202  A    between atoms: _464  and  _465
REMARK  203  A    between atoms: _468  and  _470
REMARK  204  A    between atoms: _470  and  _471
REMARK  205  A    between atoms: _470  and  _473
REMARK  206  A    between atoms: _473  and  _474
REMARK  207  A    between atoms: _474  and  _475
REMARK  208  A    between atoms: _475  and  _476
REMARK  209  A    between atoms: _476  and  _477
REMARK  210  A    between atoms: _482  and  _483
REMARK  211  A    between atoms: _488  and  _490
REMARK  212  A    between atoms: _490  and  _491
REMARK  213  A    between atoms: _490  and  _493
REMARK  214  A    between atoms: _493  and  _494
REMARK  215  A    between atoms: _494  and  _495
REMARK  216  A    between atoms: _498  and  _500
REMARK  217  A    between atoms: _500  and  _501
REMARK  218  A    between atoms: _500  and  _503
REMARK  219  A    between atoms: _503  and  _504
REMARK  220  A    between atoms: _509  and  _511
REMARK  221  A    between atoms: _511  and  _512
REMARK  222  A    between atoms: _511  and  _514
REMARK  223  A    between atoms: _514  and  _515
REMARK  224  A    between atoms: _518  and  _520
REMARK  225  A    between atoms: _520  and  _521
REMARK  226  A    between atoms: _520  and  _523
REMARK  227  A    between atoms: _523  and  _524
REMARK  228  A    between atoms: _527  and  _529
REMARK  229  A    between atoms: _529  and  _530
REMARK  230  A    between atoms: _529  and  _532
REMARK  231  A    between atoms: _532  and  _533
REMARK  232  A    between atoms: _536  and  _538
REMARK  233  A    between atoms: _538  and  _539
REMARK  234  A    between atoms: _538  and  _541
REMARK  235  A    between atoms: _541  and  _542
REMARK  236  A    between atoms: _542  and  _543
REMARK  237  A    between atoms: _548  and  _550
REMARK  238  A    between atoms: _550  and  _551
REMARK  239  A    between atoms: _550  and  _553
REMARK  240  A    between atoms: _556  and  _558
REMARK  241  A    between atoms: _558  and  _559
REMARK  242  A    between atoms: _558  and  _561
REMARK  243  A    between atoms: _561  and  _562
REMARK  244  A    between atoms: _565  and  _567
REMARK  245  A    between atoms: _567  and  _568
REMARK  246  A    between atoms: _567  and  _570
REMARK  247  A    between atoms: _570  and  _571
REMARK  248  A    between atoms: _574  and  _576
REMARK  249  A    between atoms: _576  and  _577
REMARK  250  A    between atoms: _576  and  _579
REMARK  251  A    between atoms: _579  and  _580
REMARK  252  A    between atoms: _586  and  _588
REMARK  253  A    between atoms: _588  and  _589
REMARK  254  A    between atoms: _591  and  _593
REMARK  255  A    between atoms: _593  and  _594
REMARK  256  A    between atoms: _593  and  _596
REMARK  257  A    between atoms: _596  and  _597
REMARK  258  A    between atoms: _603  and  _605
REMARK  259  A    between atoms: _605  and  _606
REMARK  260  A    between atoms: _605  and  _608
REMARK  261  A    between atoms: _610  and  _612
REMARK  262  A    between atoms: _612  and  _613
REMARK  263  A    between atoms: _615  and  _617
REMARK  264  A    between atoms: _617  and  _618
REMARK  265  A    between atoms: _617  and  _620
REMARK  266  A    between atoms: _620  and  _621
REMARK  267  A    between atoms: _625  and  _626
REMARK  268  A    between atoms: _631  and  _633
REMARK  269  A    between atoms: _633  and  _634
REMARK  270  A    between atoms: _633  and  _636
REMARK  271  A    between atoms: _636  and  _637
REMARK  272  A    between atoms: _637  and  _638
REMARK  273  A    between atoms: _641  and  _643
REMARK  274  A    between atoms: _643  and  _644
REMARK  275  A    between atoms: _643  and  _646
REMARK  276  A    between atoms: _646  and  _647
REMARK  277  A    between atoms: _652  and  _653
REMARK  278  A    between atoms: _655  and  _657
REMARK  279  A    between atoms: _657  and  _658
REMARK  280  A    between atoms: _657  and  _660
REMARK  281  A    between atoms: _663  and  _665
REMARK  282  A    between atoms: _665  and  _666
REMARK  283  A    between atoms: _665  and  _668
REMARK  284  A    between atoms: _668  and  _669
REMARK  285  A    between atoms: _672  and  _674
REMARK  286  A    between atoms: _674  and  _675
REMARK  287  A    between atoms: _674  and  _677
REMARK  288  A    between atoms: _677  and  _678
REMARK  289  A    between atoms: _678  and  _679
REMARK  290  A    between atoms: _682  and  _684
REMARK  291  A    between atoms: _684  and  _685
REMARK  292  A    between atoms: _684  and  _687
REMARK  293  A    between atoms: _687  and  _688
REMARK  294  A    between atoms: _688  and  _689
REMARK  295  A    between atoms: _691  and  _693
REMARK  296  A    between atoms: _693  and  _694
REMARK  297  A    between atoms: _696  and  _698
REMARK  298  A    between atoms: _698  and  _699
REMARK  299  A    between atoms: _698  and  _701
REMARK  300  A    between atoms: _701  and  _702
REMARK  301  A    between atoms: _707  and  _708
REMARK  302  A    between atoms: _711  and  _712
REMARK  303  A    between atoms: _718  and  _719
REMARK  304  A    between atoms: _724  and  _726
REMARK  305  A    between atoms: _726  and  _727
REMARK  306  A    between atoms: _726  and  _729
REMARK  307  A    between atoms: _729  and  _730
REMARK  308  A    between atoms: _736  and  _738
REMARK  309  A    between atoms: _738  and  _739
REMARK  310  A    between atoms: _738  and  _741
REMARK  311  A    between atoms: _741  and  _742
REMARK  312  A    between atoms: _748  and  _750
REMARK  313  A    between atoms: _750  and  _751
REMARK  314  A    between atoms: _750  and  _753
REMARK  315  A    between atoms: _753  and  _754
REMARK  316  A    between atoms: _757  and  _759
REMARK  317  A    between atoms: _759  and  _760
REMARK  318  A    between atoms: _759  and  _762
REMARK  319  A    between atoms: _762  and  _763
REMARK  320  A    between atoms: _768  and  _770
REMARK  321  A    between atoms: _770  and  _771
REMARK  322  A    between atoms: _770  and  _773
REMARK  323  A    between atoms: _773  and  _774
REMARK  324  A    between atoms: _780  and  _782
REMARK  325  A    between atoms: _782  and  _783
REMARK  326  A    between atoms: _782  and  _785
REMARK  327  A    between atoms: _785  and  _786
REMARK  328  A    between atoms: _789  and  _791
REMARK  329  A    between atoms: _791  and  _792
REMARK  330  A    between atoms: _791  and  _794
REMARK  331  A    between atoms: _794  and  _795
REMARK  332  A    between atoms: _800  and  _801
REMARK                            x       y       z     vdW  Elec       q    Type
REMARK                         _______ _______ _______ _____ _____    ______ ____
ROOT
ATOM      1  CA  GLU A   5     -19.054   0.712  10.215  0.00  0.00    +0.149 C 
ENDROOT
BRANCH   1   2
ATOM      2  C   GLU A   5     -18.082   1.126   9.098  0.00  0.00    +0.241 C 
ATOM      3  N   ASN A   6     -16.887   0.540   9.085  0.00  0.00    -0.297 N 
ATOM      4  H   ASN A   6     -16.694  -0.235   9.751  0.00  0.00    +0.150 HD
ATOM      5  O   GLU A   5     -18.414   1.977   8.282  0.00  0.00    -0.273 OA
BRANCH   3   6
ATOM      6  CA  ASN A   6     -15.833   0.962   8.151  0.00  0.00    +0.158 C 
BRANCH   6   7
ATOM      7  C   ASN A   6     -15.670  -0.018   6.984  0.00  0.00    +0.241 C 
ATOM      8  N   LEU A   7     -16.524  -1.035   6.977  0.00  0.00    -0.297 N 
ATOM      9  H   LEU A   7     -17.248  -1.095   7.721  0.00  0.00    +0.150 HD
ATOM     10  O   ASN A   6     -14.809   0.142   6.121  0.00  0.00    -0.273 OA
BRANCH   8  11
ATOM     11  CA  LEU A   7     -16.471  -2.057   5.962  0.00  0.00    +0.149 C 
BRANCH  11  12
ATOM     12  C   LEU A   7     -17.639  -1.880   4.987  0.00  0.00    +0.241 C 
ATOM     13  O   LEU A   7     -18.766  -2.250   5.290  0.00  0.00    -0.273 OA
ATOM     14  N   LEU A   8     -17.359  -1.321   3.814  0.00  0.00    -0.297 N 
ATOM     15  H   LEU A   8     -16.382  -1.040   3.592  0.00  0.00    +0.150 HD
BRANCH  14  16
ATOM     16  CA  LEU A   8     -18.429  -1.099   2.830  0.00  0.00    +0.149 C 
BRANCH  16  17
ATOM     17  C   LEU A   8     -18.633  -2.365   2.024  0.00  0.00    +0.241 C 
ATOM     18  O   LEU A   8     -17.672  -3.111   1.813  0.00  0.00    -0.273 OA
ATOM     19  N   ILE A   9     -19.882  -2.639   1.644  0.00  0.00    -0.298 N 
ATOM     20  H   ILE A   9     -20.652  -2.014   1.958  0.00  0.00    +0.150 HD
BRANCH  19  21
ATOM     21  CA  ILE A   9     -20.203  -3.784   0.804  0.00  0.00    +0.137 C 
BRANCH  21  22
ATOM     22  C   ILE A   9     -20.351  -3.344  -0.663  0.00  0.00    +0.227 C 
ATOM     23  O   ILE A   9     -21.254  -2.577  -0.989  0.00  0.00    -0.286 OA
ENDBRANCH  21  22
BRANCH  21  24
ATOM     24  CB  ILE A   9     -21.495  -4.508   1.276  0.00  0.00    +0.026 C 
ATOM     25  CG2 ILE A   9     -21.718  -5.794   0.470  0.00  0.00    +0.002 C 
BRANCH  24  26
ATOM     26  CG1 ILE A   9     -21.487  -4.764   2.805  0.00  0.00    +0.002 C 
ATOM     27  CD1 ILE A   9     -20.312  -5.617   3.319  0.00  0.00    +0.000 C 
ENDBRANCH  24  26
ENDBRANCH  21  24
ENDBRANCH  19  21
ENDBRANCH  16  17
BRANCH  16  28
ATOM     28  CB  LEU A   8     -18.103   0.093   1.932  0.00  0.00    +0.029 C 
BRANCH  28  29
ATOM     29  CG  LEU A   8     -17.782   1.337   2.777  0.00  0.00    +0.002 C 
ATOM     30  CD2 LEU A   8     -18.956   1.756   3.714  0.00  0.00    +0.000 C 
ATOM     31  CD1 LEU A   8     -17.381   2.492   1.896  0.00  0.00    +0.000 C 
ENDBRANCH  28  29
ENDBRANCH  16  28
ENDBRANCH  14  16
ENDBRANCH  11  12
BRANCH  11  32
ATOM     32  CB  LEU A   7     -16.501  -3.446   6.628  0.00  0.00    +0.029 C 
BRANCH  32  33
ATOM     33  CG  LEU A   7     -15.421  -3.649   7.706  0.00  0.00    +0.002 C 
ATOM     34  CD2 LEU A   7     -15.525  -5.022   8.383  0.00  0.00    +0.000 C 
ATOM     35  CD1 LEU A   7     -14.013  -3.417   7.153  0.00  0.00    +0.000 C 
ENDBRANCH  32  33
ENDBRANCH  11  32
ENDBRANCH   8  11
ENDBRANCH   6   7
BRANCH   6  36
ATOM     36  CB  ASN A   6     -14.517   1.163   8.911  0.00  0.00    +0.114 C 
BRANCH  36  37
ATOM     37  CG  ASN A   6     -14.490   2.476   9.683  0.00  0.00    +0.222 C 
ATOM     38  ND2 ASN A   6     -13.483   2.654  10.532  0.00  0.00    -0.329 N 
ATOM     39 HD21 ASN A   6     -13.416   3.534  11.082  0.00  0.00    +0.145 HD
ATOM     40 HD22 ASN A   6     -12.762   1.913  10.647  0.00  0.00    +0.145 HD
ATOM     41  OD1 ASN A   6     -15.370   3.318   9.507  0.00  0.00    -0.275 OA
ENDBRANCH  36  37
ENDBRANCH   6  36
ENDBRANCH   3   6
ENDBRANCH   1   2
BRANCH   1  43
ATOM     42  C   PRO A   4     -18.733  -1.738  10.027  0.00  0.00    +0.242 C 
ATOM     43  N   GLU A   5     -18.781  -0.634  10.777  0.00  0.00    -0.297 N 
ATOM     44  H   GLU A   5     -18.620  -0.722  11.801  0.00  0.00    +0.150 HD
ATOM     45  O   PRO A   4     -19.004  -1.745   8.829  0.00  0.00    -0.273 OA
BRANCH  42  51
ATOM     46  C   LYS A   3     -16.252  -2.212  11.663  0.00  0.00    +0.248 C 
ATOM     47  N   PRO A   4     -17.398  -2.867  11.859  0.00  0.00    -0.249 N 
ATOM     48  CD  PRO A   4     -17.962  -3.328  13.141  0.00  0.00    +0.063 C 
ATOM     49  CG  PRO A   4     -19.233  -4.009  12.746  0.00  0.00    -0.008 C 
ATOM     50  CB  PRO A   4     -19.515  -3.784  11.305  0.00  0.00    +0.057 C 
ATOM     51  CA  PRO A   4     -18.301  -3.054  10.716  0.00  0.00    +0.160 C 
ATOM     52  O   LYS A   3     -15.967  -1.714  10.597  0.00  0.00    -0.273 OA
BRANCH  46  53
ATOM     53  CA  LYS A   3     -15.289  -2.082  12.842  0.00  0.00    +0.149 C 
BRANCH  53  56
ATOM     54  C   LEU A   2     -12.852  -1.979  13.042  0.00  0.00    +0.241 C 
ATOM     55  O   LEU A   2     -12.884  -1.975  14.273  0.00  0.00    -0.273 OA
ATOM     56  N   LYS A   3     -13.944  -1.945  12.288  0.00  0.00    -0.297 N 
ATOM     57  H   LYS A   3     -13.838  -1.816  11.262  0.00  0.00    +0.150 HD
BRANCH  54  58
ATOM     58  CA  LEU A   2     -11.519  -1.999  12.289  0.00  0.00    +0.149 C 
BRANCH  58  60
ATOM     59  C   ASP A   1     -11.034   0.333  12.693  0.00  0.00    +0.239 C 
ATOM     60  N   LEU A   2     -10.664  -0.942  12.799  0.00  0.00    -0.297 N 
ATOM     61  H   LEU A   2      -9.758  -1.182  13.249  0.00  0.00    +0.150 HD
ATOM     62  O   ASP A   1     -12.047   0.685  12.091  0.00  0.00    -0.274 OA
BRANCH  59  63
ATOM     63  CA  ASP A   1     -10.122   1.359  13.333  0.00  0.00    +0.156 C 
BRANCH  63  64
ATOM     64  N   ASP A   1      -8.704   1.017  13.194  0.00  0.00    -0.238 NA
ATOM     65  H   ASP A   1      -8.355   0.515  12.353  0.00  0.00    +0.142 HD
ENDBRANCH  63  64
BRANCH  63  66
ATOM     66  CB  ASP A   1     -10.411   2.779  12.785  0.00  0.00    +0.140 C 
BRANCH  66  67
ATOM     67  CG  ASP A   1     -11.642   3.424  13.437  0.00  0.00    +0.367 C 
ATOM     68  OD2 ASP A   1     -12.018   3.024  14.576  0.00  0.00    -0.246 OA
ATOM     69  OD1 ASP A   1     -12.247   4.319  12.801  0.00  0.00    -0.246 OA
ENDBRANCH  66  67
ENDBRANCH  63  66
ENDBRANCH  59  63
ENDBRANCH  58  60
BRANCH  58  70
ATOM     70  CB  LEU A   2     -10.853  -3.371  12.444  0.00  0.00    +0.029 C 
BRANCH  70  71
ATOM     71  CG  LEU A   2     -11.645  -4.511  11.777  0.00  0.00    +0.002 C 
ATOM     72  CD2 LEU A   2     -10.992  -5.866  12.130  0.00  0.00    +0.000 C 
ATOM     73  CD1 LEU A   2     -11.741  -4.341  10.254  0.00  0.00    +0.000 C 
ENDBRANCH  70  71
ENDBRANCH  58  70
ENDBRANCH  54  58
ENDBRANCH  53  56
BRANCH  53  74
ATOM     74  CB  LYS A   3     -15.667  -0.863  13.720  0.00  0.00    +0.029 C 
BRANCH  74  75
ATOM     75  CG  LYS A   3     -15.411   0.500  13.079  0.00  0.00    +0.000 C 
BRANCH  75  76
ATOM     76  CD  LYS A   3     -15.791   1.631  14.051  0.00  0.00    -0.024 C 
BRANCH  76  77
ATOM     77  CE  LYS A   3     -15.580   2.988  13.408  0.00  0.00    -0.086 C 
BRANCH  77  78
ATOM     78  NZ  LYS A   3     -16.015   4.117  14.275  0.00  0.00    +0.380 N 
ATOM     79  HZ1 LYS A   3     -15.473   4.100  15.162  0.00  0.00    -0.089 HD
ATOM     80  HZ2 LYS A   3     -17.029   4.021  14.485  0.00  0.00    -0.089 HD
ATOM     81  HZ3 LYS A   3     -15.846   5.017  13.781  0.00  0.00    -0.089 HD
ENDBRANCH  77  78
ENDBRANCH  76  77
ENDBRANCH  75  76
ENDBRANCH  74  75
ENDBRANCH  53  74
ENDBRANCH  46  53
ENDBRANCH  42  51
ENDBRANCH   1  43
BRANCH   1  82
ATOM     82  CB  GLU A   5     -18.988   1.798  11.289  0.00  0.00    +0.041 C 
BRANCH  82  83
ATOM     83  CG  GLU A   5     -20.083   1.751  12.306  0.00  0.00    +0.116 C 
BRANCH  83  84
ATOM     84  CD  GLU A   5     -19.673   0.994  13.556  0.00  0.00    +0.365 C 
ATOM     85  OE2 GLU A   5     -19.920   1.534  14.636  0.00  0.00    -0.246 OA
ATOM     86  OE1 GLU A   5     -19.117  -0.117  13.460  0.00  0.00    -0.246 OA
ENDBRANCH  83  84
ENDBRANCH  82  83
ENDBRANCH   1  82
TORSDOF 37
REMARK  Name = ../refined-set-2016/3agl/3agl_pocket.pdb
REMARK  332 active torsions:
REMARK  status: ('A' for Active; 'I' for Inactive)
REMARK    1  A    between atoms: _1  and  _3
REMARK    2  A    between atoms: _3  and  _4
REMARK    3  A    between atoms: _3  and  _6
REMARK    4  A    between atoms: _6  and  _7
REMARK    5  A    between atoms: _10  and  _12
REMARK    6  A    between atoms: _12  and  _13
REMARK    7  A    between atoms: _12  and  _15
REMARK    8  A    between atoms: _15  and  _16
REMARK    9  A    between atoms: _19  and  _21
REMARK   10  A    between atoms: _21  and  _22
REMARK   11  A    between atoms: _24  and  _26
REMARK   12  A    between atoms: _26  and  _27
REMARK   13  A    between atoms: _26  and  _29
REMARK   14  A    between atoms: _29  and  _30
REMARK   15  A    between atoms: _33  and  _35
REMARK   16  A    between atoms: _35  and  _36
REMARK   17  A    between atoms: _38  and  _40
REMARK   18  A    between atoms: _40  and  _41
REMARK   19  A    between atoms: _40  and  _43
REMARK   20  A    between atoms: _43  and  _44
REMARK   21  A    between atoms: _46  and  _48
REMARK   22  A    between atoms: _48  and  _49
REMARK   23  A    between atoms: _48  and  _51
REMARK   24  A    between atoms: _51  and  _52
REMARK   25  A    between atoms: _58  and  _60
REMARK   26  A    between atoms: _60  and  _61
REMARK   27  A    between atoms: _63  and  _65
REMARK   28  A    between atoms: _65  and  _66
REMARK   29  A    between atoms: _65  and  _68
REMARK   30  A    between atoms: _68  and  _69
REMARK   31  A    between atoms: _69  and  _70
REMARK   32  A    between atoms: _70  and  _71
REMARK   33  A    between atoms: _80  and  _82
REMARK   34  A    between atoms: _82  and  _83
REMARK   35  A    between atoms: _82  and  _85
REMARK   36  A    between atoms: _88  and  _90
REMARK   37  A    between atoms: _90  and  _91
REMARK   38  A    between atoms: _90  and  _93
REMARK   39  A    between atoms: _93  and  _94
REMARK   40  A    between atoms: _94  and  _95
REMARK   41  A    between atoms: _97  and  _99
REMARK   42  A    between atoms: _99  and  _100
REMARK   43  A    between atoms: _99  and  _102
REMARK   44  A    between atoms: _102  and  _103
REMARK   45  A    between atoms: _106  and  _108
REMARK   46  A    between atoms: _108  and  _109
REMARK   47  A    between atoms: _108  and  _111
REMARK   48  A    between atoms: _111  and  _112
REMARK   49  A    between atoms: _117  and  _118
REMARK   50  A    between atoms: _120  and  _122
REMARK   51  A    between atoms: _122  and  _123
REMARK   52  A    between atoms: _126  and  _128
REMARK   53  A    between atoms: _128  and  _129
REMARK   54  A    between atoms: _128  and  _131
REMARK   55  A    between atoms: _131  and  _132
REMARK   56  A    between atoms: _132  and  _133
REMARK   57  A    between atoms: _135  and  _137
REMARK   58  A    between atoms: _137  and  _138
REMARK   59  A    between atoms: _137  and  _140
REMARK   60  A    between atoms: _140  and  _141
REMARK   61  A    between atoms: _141  and  _142
REMARK   62  A    between atoms: _142  and  _143
REMARK   63  A    between atoms: _143  and  _144
REMARK   64  A    between atoms: _148  and  _150
REMARK   65  A    between atoms: _150  and  _151
REMARK   66  A    between atoms: _150  and  _153
REMARK   67  A    between atoms: _153  and  _154
REMARK   68  A    between atoms: _157  and  _159
REMARK   69  A    between atoms: _159  and  _160
REMARK   70  A    between atoms: _159  and  _162
REMARK   71  A    between atoms: _162  and  _163
REMARK   72  A    between atoms: _166  and  _168
REMARK   73  A    between atoms: _168  and  _169
REMARK   74  A    between atoms: _168  and  _171
REMARK   75  A    between atoms: _171  and  _172
REMARK   76  A    between atoms: _175  and  _177
REMARK   77  A    between atoms: _177  and  _178
REMARK   78  A    between atoms: _177  and  _180
REMARK   79  A    between atoms: _180  and  _181
REMARK   80  A    between atoms: _181  and  _182
REMARK   81  A    between atoms: _182  and  _183
REMARK   82  A    between atoms: _183  and  _184
REMARK   83  A    between atoms: _188  and  _190
REMARK   84  A    between atoms: _190  and  _191
REMARK   85  A    between atoms: _190  and  _193
REMARK   86  A    between atoms: _196  and  _198
REMARK   87  A    between atoms: _198  and  _199
REMARK   88  A    between atoms: _198  and  _201
REMARK   89  A    between atoms: _201  and  _202
REMARK   90  A    between atoms: _205  and  _207
REMARK   91  A    between atoms: _207  and  _208
REMARK   92  A    between atoms: _207  and  _210
REMARK   93  A    between atoms: _210  and  _211
REMARK   94  A    between atoms: _211  and  _212
REMARK   95  A    between atoms: _217  and  _219
REMARK   96  A    between atoms: _219  and  _220
REMARK   97  A    between atoms: _219  and  _222
REMARK   98  A    between atoms: _222  and  _223
REMARK   99  A    between atoms: _228  and  _230
REMARK  100  A    between atoms: _230  and  _231
REMARK  101  A    between atoms: _230  and  _233
REMARK  102  A    between atoms: _233  and  _234
REMARK  103  A    between atoms: _237  and  _239
REMARK  104  A    between atoms: _239  and  _240
REMARK  105  A    between atoms: _239  and  _242
REMARK  106  A    between atoms: _242  and  _243
REMARK  107  A    between atoms: _243  and  _244
REMARK  108  A    between atoms: _247  and  _249
REMARK  109  A    between atoms: _249  and  _250
REMARK  110  A    between atoms: _249  and  _252
REMARK  111  A    between atoms: _252  and  _253
REMARK  112  A    between atoms: _256  and  _258
REMARK  113  A    between atoms: _258  and  _259
REMARK  114  A    between atoms: _258  and  _261
REMARK  115  A    between atoms: _264  and  _266
REMARK  116  A    between atoms: _266  and  _267
REMARK  117  A    between atoms: _266  and  _269
REMARK  118  A    between atoms: _269  and  _270
REMARK  119  A    between atoms: _270  and  _271
REMARK  120  A    between atoms: _271  and  _272
REMARK  121  A    between atoms: _272  and  _273
REMARK  122  A    between atoms: _277  and  _279
REMARK  123  A    between atoms: _279  and  _280
REMARK  124  A    between atoms: _279  and  _282
REMARK  125  A    between atoms: _282  and  _283
REMARK  126  A    between atoms: _286  and  _288
REMARK  127  A    between atoms: _288  and  _289
REMARK  128  A    between atoms: _288  and  _291
REMARK  129  A    between atoms: _291  and  _292
REMARK  130  A    between atoms: _292  and  _293
REMARK  131  A    between atoms: _296  and  _298
REMARK  132  A    between atoms: _298  and  _299
REMARK  133  A    between atoms: _298  and  _301
REMARK  134  A    between atoms: _301  and  _302
REMARK  135  A    between atoms: _302  and  _303
REMARK  136  A    between atoms: _305  and  _307
REMARK  137  A    between atoms: _307  and  _308
REMARK  138  A    between atoms: _307  and  _310
REMARK  139  A    between atoms: _313  and  _315
REMARK  140  A    between atoms: _315  and  _316
REMARK  141  A    between atoms: _315  and  _318
REMARK  142  A    between atoms: _318  and  _319
REMARK  143  A    between atoms: _319  and  _320
REMARK  144  A    between atoms: _322  and  _324
REMARK  145  A    between atoms: _324  and  _325
REMARK  146  A    between atoms: _324  and  _327
REMARK  147  A    between atoms: _327  and  _328
REMARK  148  A    between atoms: _328  and  _329
REMARK  149  A    between atoms: _332  and  _334
REMARK  150  A    between atoms: _334  and  _335
REMARK  151  A    between atoms: _334  and  _337
REMARK  152  A    between atoms: _337  and  _338
REMARK  153  A    between atoms: _343  and  _344
REMARK  154  A    between atoms: _346  and  _348
REMARK  155  A    between atoms: _348  and  _349
REMARK  156  A    between atoms: _348  and  _351
REMARK  157  A    between atoms: _355  and  _356
REMARK  158  A    between atoms: _361  and  _363
REMARK  159  A    between atoms: _363  and  _364
REMARK  160  A    between atoms: _366  and  _368
REMARK  161  A    between atoms: _368  and  _369
REMARK  162  A    between atoms: _371  and  _373
REMARK  163  A    between atoms: _373  and  _374
REMARK  164  A    between atoms: _373  and  _376
REMARK  165  A    between atoms: _376  and  _377
REMARK  166  A    between atoms: _377  and  _378
REMARK  167  A    between atoms: _381  and  _383
REMARK  168  A    between atoms: _383  and  _384
REMARK  169  A    between atoms: _383  and  _386
REMARK  170  A    between atoms: _386  and  _387
REMARK  171  A    between atoms: _387  and  _388
REMARK  172  A    between atoms: _390  and  _392
REMARK  173  A    between atoms: _392  and  _393
REMARK  174  A    between atoms: _392  and  _395
REMARK  175  A    between atoms: _395  and  _396
REMARK  176  A    between atoms: _402  and  _404
REMARK  177  A    between atoms: _404  and  _405
REMARK  178  A    between atoms: _404  and  _407
REMARK  179  A    between atoms: _407  and  _408
REMARK  180  A    between atoms: _410  and  _412
REMARK  181  A    between atoms: _412  and  _413
REMARK  182  A    between atoms: _412  and  _415
REMARK  183  A    between atoms: _415  and  _416
REMARK  184  A    between atoms: _419  and  _421
REMARK  185  A    between atoms: _421  and  _422
REMARK  186  A    between atoms: _421  and  _424
REMARK  187  A    between atoms: _424  and  _425
REMARK  188  A    between atoms: _425  and  _426
REMARK  189  A    between atoms: _426  and  _427
REMARK  190  A    between atoms: _436  and  _438
REMARK  191  A    between atoms: _438  and  _439
REMARK  192  A    between atoms: _438  and  _441
REMARK  193  A    between atoms: _441  and  _442
REMARK  194  A    between atoms: _447  and  _448
REMARK  195  A    between atoms: _450  and  _452
REMARK  196  A    between atoms: _452  and  _453
REMARK  197  A    between atoms: _452  and  _455
REMARK  198  A    between atoms: _455  and  _456
REMARK  199  A    between atoms: _459  and  _461
REMARK  200  A    between atoms: _461  and  _462
REMARK  201  A    between atoms: _461  and  _464
REMARK  202  A    between atoms: _464  and  _465
REMARK  203  A    between atoms: _468  and  _470
REMARK  204  A    between atoms: _470  and  _471
REMARK  205  A    between atoms: _470  and  _473
REMARK  206  A    between atoms: _473  and  _474
REMARK  207  A    between atoms: _474  and  _475
REMARK  208  A    between atoms: _475  and  _476
REMARK  209  A    between atoms: _476  and  _477
REMARK  210  A    between atoms: _482  and  _483
REMARK  211  A    between atoms: _488  and  _490
REMARK  212  A    between atoms: _490  and  _491
REMARK  213  A    between atoms: _490  and  _493
REMARK  214  A    between atoms: _493  and  _494
REMARK  215  A    between atoms: _494  and  _495
REMARK  216  A    between atoms: _498  and  _500
REMARK  217  A    between atoms: _500  and  _501
REMARK  218  A    between atoms: _500  and  _503
REMARK  219  A    between atoms: _503  and  _504
REMARK  220  A    between atoms: _509  and  _511
REMARK  221  A    between atoms: _511  and  _512
REMARK  222  A    between atoms: _511  and  _514
REMARK  223  A    between atoms: _514  and  _515
REMARK  224  A    between atoms: _518  and  _520
REMARK  225  A    between atoms: _520  and  _521
REMARK  226  A    between atoms: _520  and  _523
REMARK  227  A    between atoms: _523  and  _524
REMARK  228  A    between atoms: _527  and  _529
REMARK  229  A    between atoms: _529  and  _530
REMARK  230  A    between atoms: _529  and  _532
REMARK  231  A    between atoms: _532  and  _533
REMARK  232  A    between atoms: _536  and  _538
REMARK  233  A    between atoms: _538  and  _539
REMARK  234  A    between atoms: _538  and  _541
REMARK  235  A    between atoms: _541  and  _542
REMARK  236  A    between atoms: _542  and  _543
REMARK  237  A    between atoms: _548  and  _550
REMARK  238  A    between atoms: _550  and  _551
REMARK  239  A    between atoms: _550  and  _553
REMARK  240  A    between atoms: _556  and  _558
REMARK  241  A    between atoms: _558  and  _559
REMARK  242  A    between atoms: _558  and  _561
REMARK  243  A    between atoms: _561  and  _562
REMARK  244  A    between atoms: _565  and  _567
REMARK  245  A    between atoms: _567  and  _568
REMARK  246  A    between atoms: _567  and  _570
REMARK  247  A    between atoms: _570  and  _571
REMARK  248  A    between atoms: _574  and  _576
REMARK  249  A    between atoms: _576  and  _577
REMARK  250  A    between atoms: _576  and  _579
REMARK  251  A    between atoms: _579  and  _580
REMARK  252  A    between atoms: _586  and  _588
REMARK  253  A    between atoms: _588  and  _589
REMARK  254  A    between atoms: _591  and  _593
REMARK  255  A    between atoms: _593  and  _594
REMARK  256  A    between atoms: _593  and  _596
REMARK  257  A    between atoms: _596  and  _597
REMARK  258  A    between atoms: _603  and  _605
REMARK  259  A    between atoms: _605  and  _606
REMARK  260  A    between atoms: _605  and  _608
REMARK  261  A    between atoms: _610  and  _612
REMARK  262  A    between atoms: _612  and  _613
REMARK  263  A    between atoms: _615  and  _617
REMARK  264  A    between atoms: _617  and  _618
REMARK  265  A    between atoms: _617  and  _620
REMARK  266  A    between atoms: _620  and  _621
REMARK  267  A    between atoms: _625  and  _626
REMARK  268  A    between atoms: _631  and  _633
REMARK  269  A    between atoms: _633  and  _634
REMARK  270  A    between atoms: _633  and  _636
REMARK  271  A    between atoms: _636  and  _637
REMARK  272  A    between atoms: _637  and  _638
REMARK  273  A    between atoms: _641  and  _643
REMARK  274  A    between atoms: _643  and  _644
REMARK  275  A    between atoms: _643  and  _646
REMARK  276  A    between atoms: _646  and  _647
REMARK  277  A    between atoms: _652  and  _653
REMARK  278  A    between atoms: _655  and  _657
REMARK  279  A    between atoms: _657  and  _658
REMARK  280  A    between atoms: _657  and  _660
REMARK  281  A    between atoms: _663  and  _665
REMARK  282  A    between atoms: _665  and  _666
REMARK  283  A    between atoms: _665  and  _668
REMARK  284  A    between atoms: _668  and  _669
REMARK  285  A    between atoms: _672  and  _674
REMARK  286  A    between atoms: _674  and  _675
REMARK  287  A    between atoms: _674  and  _677
REMARK  288  A    between atoms: _677  and  _678
REMARK  289  A    between atoms: _678  and  _679
REMARK  290  A    between atoms: _682  and  _684
REMARK  291  A    between atoms: _684  and  _685
REMARK  292  A    between atoms: _684  and  _687
REMARK  293  A    between atoms: _687  and  _688
REMARK  294  A    between atoms: _688  and  _689
REMARK  295  A    between atoms: _691  and  _693
REMARK  296  A    between atoms: _693  and  _694
REMARK  297  A    between atoms: _696  and  _698
REMARK  298  A    between atoms: _698  and  _699
REMARK  299  A    between atoms: _698  and  _701
REMARK  300  A    between atoms: _701  and  _702
REMARK  301  A    between atoms: _707  and  _708
REMARK  302  A    between atoms: _711  and  _712
REMARK  303  A    between atoms: _718  and  _719
REMARK  304  A    between atoms: _724  and  _726
REMARK  305  A    between atoms: _726  and  _727
REMARK  306  A    between atoms: _726  and  _729
REMARK  307  A    between atoms: _729  and  _730
REMARK  308  A    between atoms: _736  and  _738
REMARK  309  A    between atoms: _738  and  _739
REMARK  310  A    between atoms: _738  and  _741
REMARK  311  A    between atoms: _741  and  _742
REMARK  312  A    between atoms: _748  and  _750
REMARK  313  A    between atoms: _750  and  _751
REMARK  314  A    between atoms: _750  and  _753
REMARK  315  A    between atoms: _753  and  _754
REMARK  316  A    between atoms: _757  and  _759
REMARK  317  A    between atoms: _759  and  _760
REMARK  318  A    between atoms: _759  and  _762
REMARK  319  A    between atoms: _762  and  _763
REMARK  320  A    between atoms: _768  and  _770
REMARK  321  A    between atoms: _770  and  _771
REMARK  322  A    between atoms: _770  and  _773
REMARK  323  A    between atoms: _773  and  _774
REMARK  324  A    between atoms: _780  and  _782
REMARK  325  A    between atoms: _782  and  _783
REMARK  326  A    between atoms: _782  and  _785
REMARK  327  A    between atoms: _785  and  _786
REMARK  328  A    between atoms: _789  and  _791
REMARK  329  A    between atoms: _791  and  _792
REMARK  330  A    between atoms: _791  and  _794
REMARK  331  A    between atoms: _794  and  _795
REMARK  332  A    between atoms: _800  and  _801
REMARK                            x       y       z     vdW  Elec       q    Type
REMARK                         _______ _______ _______ _____ _____    ______ ____
ROOT
ATOM      1  CA  ASP A   4     -11.728   5.491   6.873  0.00  0.00    +0.160 C 
ENDROOT
BRANCH   1   2
ATOM      2  C   ASP A   4     -10.338   5.090   7.396  0.00  0.00    +0.241 C 
ATOM      3  O   ASP A   4     -10.199   4.271   8.319  0.00  0.00    -0.273 OA
ATOM      4  N   PHE A   5      -9.321   5.701   6.809  0.00  0.00    -0.297 N 
ATOM      5  H   PHE A   5      -9.514   6.358   6.026  0.00  0.00    +0.150 HD
BRANCH   4   6
ATOM      6  CA  PHE A   5      -7.947   5.485   7.221  0.00  0.00    +0.153 C 
BRANCH   6   7
ATOM      7  C   PHE A   5      -7.467   6.550   8.178  0.00  0.00    +0.241 C 
ATOM      8  N   GLY A   6      -8.438   7.191   8.837  0.00  0.00    -0.295 N 
ATOM      9  H   GLY A   6      -9.415   6.852   8.727  0.00  0.00    +0.150 HD
ATOM     10  O   PHE A   5      -6.253   6.755   8.341  0.00  0.00    -0.273 OA
BRANCH   8  11
ATOM     11  CA  GLY A   6      -8.196   8.345   9.705  0.00  0.00    +0.176 C 
BRANCH  11  12
ATOM     12  C   GLY A   6      -7.239   8.068  10.853  0.00  0.00    +0.243 C 
ATOM     13  N   PHE A   7      -7.182   6.817  11.319  0.00  0.00    -0.298 N 
ATOM     14  H   PHE A   7      -7.856   6.112  10.957  0.00  0.00    +0.150 HD
ATOM     15  O   GLY A   6      -6.565   8.980  11.304  0.00  0.00    -0.273 OA
BRANCH  13  16
ATOM     16  CA  PHE A   7      -6.187   6.405  12.336  0.00  0.00    +0.141 C 
BRANCH  16  17
ATOM     17  C   PHE A   7      -5.023   5.534  11.821  0.00  0.00    +0.227 C 
ATOM     18  O   PHE A   7      -4.176   5.099  12.609  0.00  0.00    -0.286 OA
ENDBRANCH  16  17
BRANCH  16  19
ATOM     19  CB  PHE A   7      -6.873   5.692  13.513  0.00  0.00    +0.054 C 
BRANCH  19  20
ATOM     20  CG  PHE A   7      -7.933   6.502  14.183  0.00  0.00    -0.020 A 
ATOM     21  CD2 PHE A   7      -7.692   7.831  14.566  0.00  0.00    -0.004 A 
ATOM     22  CE2 PHE A   7      -8.687   8.587  15.201  0.00  0.00    -0.000 A 
ATOM     23  CZ  PHE A   7      -9.925   8.008  15.476  0.00  0.00    -0.000 A 
ATOM     24  CE1 PHE A   7     -10.166   6.686  15.123  0.00  0.00    -0.000 A 
ATOM     25  CD1 PHE A   7      -9.171   5.939  14.464  0.00  0.00    -0.004 A 
ENDBRANCH  19  20
ENDBRANCH  16  19
ENDBRANCH  13  16
ENDBRANCH  11  12
ENDBRANCH   8  11
ENDBRANCH   6   7
BRANCH   6  26
ATOM     26  CB  PHE A   5      -7.052   5.357   5.983  0.00  0.00    +0.055 C 
BRANCH  26  27
ATOM     27  CG  PHE A   5      -6.961   3.955   5.469  0.00  0.00    -0.020 A 
ATOM     28  CD2 PHE A   5      -5.751   3.282   5.477  0.00  0.00    -0.004 A 
ATOM     29  CE2 PHE A   5      -5.656   1.973   5.014  0.00  0.00    -0.000 A 
ATOM     30  CZ  PHE A   5      -6.807   1.315   4.551  0.00  0.00    -0.000 A 
ATOM     31  CE1 PHE A   5      -8.021   1.968   4.552  0.00  0.00    -0.000 A 
ATOM     32  CD1 PHE A   5      -8.106   3.287   5.019  0.00  0.00    -0.004 A 
ENDBRANCH  26  27
ENDBRANCH   6  26
ENDBRANCH   4   6
ENDBRANCH   1   2
BRANCH   1  35
ATOM     33  C   THR A   3     -12.328   3.448   5.650  0.00  0.00    +0.243 C 
ATOM     34  O   THR A   3     -12.161   2.752   6.627  0.00  0.00    -0.273 OA
ATOM     35  N   ASP A   4     -12.129   4.765   5.669  0.00  0.00    -0.296 N 
ATOM     36  H   ASP A   4     -12.265   5.301   4.788  0.00  0.00    +0.150 HD
BRANCH  33  37
ATOM     37  CA  THR A   3     -12.798   2.819   4.330  0.00  0.00    +0.176 C 
BRANCH  37  39
ATOM     38  C   VAL A   2     -12.239   0.584   3.639  0.00  0.00    +0.241 C 
ATOM     39  N   THR A   3     -12.913   1.382   4.460  0.00  0.00    -0.295 N 
ATOM     40  H   THR A   3     -13.524   0.974   5.196  0.00  0.00    +0.150 HD
ATOM     41  O   VAL A   2     -11.509   1.004   2.736  0.00  0.00    -0.273 OA
BRANCH  38  42
ATOM     42  CA  VAL A   2     -12.398  -0.912   3.867  0.00  0.00    +0.148 C 
BRANCH  42  44
ATOM     43  C   GLN A   1     -13.942  -1.477   2.054  0.00  0.00    +0.238 C 
ATOM     44  N   VAL A   2     -12.725  -1.551   2.600  0.00  0.00    -0.297 N 
ATOM     45  H   VAL A   2     -11.984  -2.084   2.102  0.00  0.00    +0.150 HD
ATOM     46  O   GLN A   1     -14.868  -0.844   2.556  0.00  0.00    -0.274 OA
BRANCH  43  47
ATOM     47  CA  GLN A   1     -14.154  -2.204   0.737  0.00  0.00    +0.145 C 
BRANCH  47  48
ATOM     48  N   GLN A   1     -15.034  -3.307   1.022  0.00  0.00    -0.238 NA
ATOM     49  H   GLN A   1     -15.933  -3.101   1.502  0.00  0.00    +0.142 HD
ENDBRANCH  47  48
BRANCH  47  50
ATOM     50  CB  GLN A   1     -14.813  -1.240  -0.276  0.00  0.00    +0.036 C 
BRANCH  50  51
ATOM     51  CG  GLN A   1     -15.037  -1.830  -1.662  0.00  0.00    +0.087 C 
BRANCH  51  52
ATOM     52  CD  GLN A   1     -13.794  -1.702  -2.505  0.00  0.00    +0.219 C 
ATOM     53  NE2 GLN A   1     -12.990  -2.765  -2.541  0.00  0.00    -0.329 N 
ATOM     54 HE21 GLN A   1     -13.257  -3.636  -2.039  0.00  0.00    +0.145 HD
ATOM     55 HE22 GLN A   1     -12.096  -2.723  -3.071  0.00  0.00    +0.145 HD
ATOM     56  OE1 GLN A   1     -13.530  -0.643  -3.080  0.00  0.00    -0.275 OA
ENDBRANCH  51  52
ENDBRANCH  50  51
ENDBRANCH  47  50
ENDBRANCH  43  47
ENDBRANCH  42  44
BRANCH  42  57
ATOM     57  CB  VAL A   2     -11.077  -1.447   4.501  0.00  0.00    +0.027 C 
ATOM     58  CG2 VAL A   2     -10.816  -0.744   5.819  0.00  0.00    +0.002 C 
ATOM     59  CG1 VAL A   2     -11.132  -2.959   4.712  0.00  0.00    +0.002 C 
ENDBRANCH  42  57
ENDBRANCH  38  42
ENDBRANCH  37  39
BRANCH  37  60
ATOM     60  CB  THR A   3     -14.123   3.438   3.854  0.00  0.00    +0.137 C 
ATOM     61  CG2 THR A   3     -15.211   3.366   4.972  0.00  0.00    +0.034 C 
BRANCH  60  62
ATOM     62  OG1 THR A   3     -13.889   4.802   3.478  0.00  0.00    -0.382 OA
ATOM     63  HG1 THR A   3     -14.738   5.208   3.170  0.00  0.00    +0.210 HD
ENDBRANCH  60  62
ENDBRANCH  37  60
ENDBRANCH  33  37
ENDBRANCH   1  35
BRANCH   1  64
ATOM     64  CB  ASP A   4     -12.796   5.404   7.990  0.00  0.00    +0.143 C 
BRANCH  64  65
ATOM     65  CG  ASP A   4     -12.631   6.494   9.046  0.00  0.00    +0.367 C 
ATOM     66  OD2 ASP A   4     -13.545   6.660   9.877  0.00  0.00    -0.246 OA
ATOM     67  OD1 ASP A   4     -11.606   7.193   9.052  0.00  0.00    -0.246 OA
ENDBRANCH  64  65
ENDBRANCH   1  64
TORSDOF 26
REMARK  Name = ../refined-set-2016/3agl/3agl_pocket.pdb
REMARK  332 active torsions:
REMARK  status: ('A' for Active; 'I' for Inactive)
REMARK    1  A    between atoms: _1  and  _3
REMARK    2  A    between atoms: _3  and  _4
REMARK    3  A    between atoms: _3  and  _6
REMARK    4  A    between atoms: _6  and  _7
REMARK    5  A    between atoms: _10  and  _12
REMARK    6  A    between atoms: _12  and  _13
REMARK    7  A    between atoms: _12  and  _15
REMARK    8  A    between atoms: _15  and  _16
REMARK    9  A    between atoms: _19  and  _21
REMARK   10  A    between atoms: _21  and  _22
REMARK   11  A    between atoms: _24  and  _26
REMARK   12  A    between atoms: _26  and  _27
REMARK   13  A    between atoms: _26  and  _29
REMARK   14  A    between atoms: _29  and  _30
REMARK   15  A    between atoms: _33  and  _35
REMARK   16  A    between atoms: _35  and  _36
REMARK   17  A    between atoms: _38  and  _40
REMARK   18  A    between atoms: _40  and  _41
REMARK   19  A    between atoms: _40  and  _43
REMARK   20  A    between atoms: _43  and  _44
REMARK   21  A    between atoms: _46  and  _48
REMARK   22  A    between atoms: _48  and  _49
REMARK   23  A    between atoms: _48  and  _51
REMARK   24  A    between atoms: _51  and  _52
REMARK   25  A    between atoms: _58  and  _60
REMARK   26  A    between atoms: _60  and  _61
REMARK   27  A    between atoms: _63  and  _65
REMARK   28  A    between atoms: _65  and  _66
REMARK   29  A    between atoms: _65  and  _68
REMARK   30  A    between atoms: _68  and  _69
REMARK   31  A    between atoms: _69  and  _70
REMARK   32  A    between atoms: _70  and  _71
REMARK   33  A    between atoms: _80  and  _82
REMARK   34  A    between atoms: _82  and  _83
REMARK   35  A    between atoms: _82  and  _85
REMARK   36  A    between atoms: _88  and  _90
REMARK   37  A    between atoms: _90  and  _91
REMARK   38  A    between atoms: _90  and  _93
REMARK   39  A    between atoms: _93  and  _94
REMARK   40  A    between atoms: _94  and  _95
REMARK   41  A    between atoms: _97  and  _99
REMARK   42  A    between atoms: _99  and  _100
REMARK   43  A    between atoms: _99  and  _102
REMARK   44  A    between atoms: _102  and  _103
REMARK   45  A    between atoms: _106  and  _108
REMARK   46  A    between atoms: _108  and  _109
REMARK   47  A    between atoms: _108  and  _111
REMARK   48  A    between atoms: _111  and  _112
REMARK   49  A    between atoms: _117  and  _118
REMARK   50  A    between atoms: _120  and  _122
REMARK   51  A    between atoms: _122  and  _123
REMARK   52  A    between atoms: _126  and  _128
REMARK   53  A    between atoms: _128  and  _129
REMARK   54  A    between atoms: _128  and  _131
REMARK   55  A    between atoms: _131  and  _132
REMARK   56  A    between atoms: _132  and  _133
REMARK   57  A    between atoms: _135  and  _137
REMARK   58  A    between atoms: _137  and  _138
REMARK   59  A    between atoms: _137  and  _140
REMARK   60  A    between atoms: _140  and  _141
REMARK   61  A    between atoms: _141  and  _142
REMARK   62  A    between atoms: _142  and  _143
REMARK   63  A    between atoms: _143  and  _144
REMARK   64  A    between atoms: _148  and  _150
REMARK   65  A    between atoms: _150  and  _151
REMARK   66  A    between atoms: _150  and  _153
REMARK   67  A    between atoms: _153  and  _154
REMARK   68  A    between atoms: _157  and  _159
REMARK   69  A    between atoms: _159  and  _160
REMARK   70  A    between atoms: _159  and  _162
REMARK   71  A    between atoms: _162  and  _163
REMARK   72  A    between atoms: _166  and  _168
REMARK   73  A    between atoms: _168  and  _169
REMARK   74  A    between atoms: _168  and  _171
REMARK   75  A    between atoms: _171  and  _172
REMARK   76  A    between atoms: _175  and  _177
REMARK   77  A    between atoms: _177  and  _178
REMARK   78  A    between atoms: _177  and  _180
REMARK   79  A    between atoms: _180  and  _181
REMARK   80  A    between atoms: _181  and  _182
REMARK   81  A    between atoms: _182  and  _183
REMARK   82  A    between atoms: _183  and  _184
REMARK   83  A    between atoms: _188  and  _190
REMARK   84  A    between atoms: _190  and  _191
REMARK   85  A    between atoms: _190  and  _193
REMARK   86  A    between atoms: _196  and  _198
REMARK   87  A    between atoms: _198  and  _199
REMARK   88  A    between atoms: _198  and  _201
REMARK   89  A    between atoms: _201  and  _202
REMARK   90  A    between atoms: _205  and  _207
REMARK   91  A    between atoms: _207  and  _208
REMARK   92  A    between atoms: _207  and  _210
REMARK   93  A    between atoms: _210  and  _211
REMARK   94  A    between atoms: _211  and  _212
REMARK   95  A    between atoms: _217  and  _219
REMARK   96  A    between atoms: _219  and  _220
REMARK   97  A    between atoms: _219  and  _222
REMARK   98  A    between atoms: _222  and  _223
REMARK   99  A    between atoms: _228  and  _230
REMARK  100  A    between atoms: _230  and  _231
REMARK  101  A    between atoms: _230  and  _233
REMARK  102  A    between atoms: _233  and  _234
REMARK  103  A    between atoms: _237  and  _239
REMARK  104  A    between atoms: _239  and  _240
REMARK  105  A    between atoms: _239  and  _242
REMARK  106  A    between atoms: _242  and  _243
REMARK  107  A    between atoms: _243  and  _244
REMARK  108  A    between atoms: _247  and  _249
REMARK  109  A    between atoms: _249  and  _250
REMARK  110  A    between atoms: _249  and  _252
REMARK  111  A    between atoms: _252  and  _253
REMARK  112  A    between atoms: _256  and  _258
REMARK  113  A    between atoms: _258  and  _259
REMARK  114  A    between atoms: _258  and  _261
REMARK  115  A    between atoms: _264  and  _266
REMARK  116  A    between atoms: _266  and  _267
REMARK  117  A    between atoms: _266  and  _269
REMARK  118  A    between atoms: _269  and  _270
REMARK  119  A    between atoms: _270  and  _271
REMARK  120  A    between atoms: _271  and  _272
REMARK  121  A    between atoms: _272  and  _273
REMARK  122  A    between atoms: _277  and  _279
REMARK  123  A    between atoms: _279  and  _280
REMARK  124  A    between atoms: _279  and  _282
REMARK  125  A    between atoms: _282  and  _283
REMARK  126  A    between atoms: _286  and  _288
REMARK  127  A    between atoms: _288  and  _289
REMARK  128  A    between atoms: _288  and  _291
REMARK  129  A    between atoms: _291  and  _292
REMARK  130  A    between atoms: _292  and  _293
REMARK  131  A    between atoms: _296  and  _298
REMARK  132  A    between atoms: _298  and  _299
REMARK  133  A    between atoms: _298  and  _301
REMARK  134  A    between atoms: _301  and  _302
REMARK  135  A    between atoms: _302  and  _303
REMARK  136  A    between atoms: _305  and  _307
REMARK  137  A    between atoms: _307  and  _308
REMARK  138  A    between atoms: _307  and  _310
REMARK  139  A    between atoms: _313  and  _315
REMARK  140  A    between atoms: _315  and  _316
REMARK  141  A    between atoms: _315  and  _318
REMARK  142  A    between atoms: _318  and  _319
REMARK  143  A    between atoms: _319  and  _320
REMARK  144  A    between atoms: _322  and  _324
REMARK  145  A    between atoms: _324  and  _325
REMARK  146  A    between atoms: _324  and  _327
REMARK  147  A    between atoms: _327  and  _328
REMARK  148  A    between atoms: _328  and  _329
REMARK  149  A    between atoms: _332  and  _334
REMARK  150  A    between atoms: _334  and  _335
REMARK  151  A    between atoms: _334  and  _337
REMARK  152  A    between atoms: _337  and  _338
REMARK  153  A    between atoms: _343  and  _344
REMARK  154  A    between atoms: _346  and  _348
REMARK  155  A    between atoms: _348  and  _349
REMARK  156  A    between atoms: _348  and  _351
REMARK  157  A    between atoms: _355  and  _356
REMARK  158  A    between atoms: _361  and  _363
REMARK  159  A    between atoms: _363  and  _364
REMARK  160  A    between atoms: _366  and  _368
REMARK  161  A    between atoms: _368  and  _369
REMARK  162  A    between atoms: _371  and  _373
REMARK  163  A    between atoms: _373  and  _374
REMARK  164  A    between atoms: _373  and  _376
REMARK  165  A    between atoms: _376  and  _377
REMARK  166  A    between atoms: _377  and  _378
REMARK  167  A    between atoms: _381  and  _383
REMARK  168  A    between atoms: _383  and  _384
REMARK  169  A    between atoms: _383  and  _386
REMARK  170  A    between atoms: _386  and  _387
REMARK  171  A    between atoms: _387  and  _388
REMARK  172  A    between atoms: _390  and  _392
REMARK  173  A    between atoms: _392  and  _393
REMARK  174  A    between atoms: _392  and  _395
REMARK  175  A    between atoms: _395  and  _396
REMARK  176  A    between atoms: _402  and  _404
REMARK  177  A    between atoms: _404  and  _405
REMARK  178  A    between atoms: _404  and  _407
REMARK  179  A    between atoms: _407  and  _408
REMARK  180  A    between atoms: _410  and  _412
REMARK  181  A    between atoms: _412  and  _413
REMARK  182  A    between atoms: _412  and  _415
REMARK  183  A    between atoms: _415  and  _416
REMARK  184  A    between atoms: _419  and  _421
REMARK  185  A    between atoms: _421  and  _422
REMARK  186  A    between atoms: _421  and  _424
REMARK  187  A    between atoms: _424  and  _425
REMARK  188  A    between atoms: _425  and  _426
REMARK  189  A    between atoms: _426  and  _427
REMARK  190  A    between atoms: _436  and  _438
REMARK  191  A    between atoms: _438  and  _439
REMARK  192  A    between atoms: _438  and  _441
REMARK  193  A    between atoms: _441  and  _442
REMARK  194  A    between atoms: _447  and  _448
REMARK  195  A    between atoms: _450  and  _452
REMARK  196  A    between atoms: _452  and  _453
REMARK  197  A    between atoms: _452  and  _455
REMARK  198  A    between atoms: _455  and  _456
REMARK  199  A    between atoms: _459  and  _461
REMARK  200  A    between atoms: _461  and  _462
REMARK  201  A    between atoms: _461  and  _464
REMARK  202  A    between atoms: _464  and  _465
REMARK  203  A    between atoms: _468  and  _470
REMARK  204  A    between atoms: _470  and  _471
REMARK  205  A    between atoms: _470  and  _473
REMARK  206  A    between atoms: _473  and  _474
REMARK  207  A    between atoms: _474  and  _475
REMARK  208  A    between atoms: _475  and  _476
REMARK  209  A    between atoms: _476  and  _477
REMARK  210  A    between atoms: _482  and  _483
REMARK  211  A    between atoms: _488  and  _490
REMARK  212  A    between atoms: _490  and  _491
REMARK  213  A    between atoms: _490  and  _493
REMARK  214  A    between atoms: _493  and  _494
REMARK  215  A    between atoms: _494  and  _495
REMARK  216  A    between atoms: _498  and  _500
REMARK  217  A    between atoms: _500  and  _501
REMARK  218  A    between atoms: _500  and  _503
REMARK  219  A    between atoms: _503  and  _504
REMARK  220  A    between atoms: _509  and  _511
REMARK  221  A    between atoms: _511  and  _512
REMARK  222  A    between atoms: _511  and  _514
REMARK  223  A    between atoms: _514  and  _515
REMARK  224  A    between atoms: _518  and  _520
REMARK  225  A    between atoms: _520  and  _521
REMARK  226  A    between atoms: _520  and  _523
REMARK  227  A    between atoms: _523  and  _524
REMARK  228  A    between atoms: _527  and  _529
REMARK  229  A    between atoms: _529  and  _530
REMARK  230  A    between atoms: _529  and  _532
REMARK  231  A    between atoms: _532  and  _533
REMARK  232  A    between atoms: _536  and  _538
REMARK  233  A    between atoms: _538  and  _539
REMARK  234  A    between atoms: _538  and  _541
REMARK  235  A    between atoms: _541  and  _542
REMARK  236  A    between atoms: _542  and  _543
REMARK  237  A    between atoms: _548  and  _550
REMARK  238  A    between atoms: _550  and  _551
REMARK  239  A    between atoms: _550  and  _553
REMARK  240  A    between atoms: _556  and  _558
REMARK  241  A    between atoms: _558  and  _559
REMARK  242  A    between atoms: _558  and  _561
REMARK  243  A    between atoms: _561  and  _562
REMARK  244  A    between atoms: _565  and  _567
REMARK  245  A    between atoms: _567  and  _568
REMARK  246  A    between atoms: _567  and  _570
REMARK  247  A    between atoms: _570  and  _571
REMARK  248  A    between atoms: _574  and  _576
REMARK  249  A    between atoms: _576  and  _577
REMARK  250  A    between atoms: _576  and  _579
REMARK  251  A    between atoms: _579  and  _580
REMARK  252  A    between atoms: _586  and  _588
REMARK  253  A    between atoms: _588  and  _589
REMARK  254  A    between atoms: _591  and  _593
REMARK  255  A    between atoms: _593  and  _594
REMARK  256  A    between atoms: _593  and  _596
REMARK  257  A    between atoms: _596  and  _597
REMARK  258  A    between atoms: _603  and  _605
REMARK  259  A    between atoms: _605  and  _606
REMARK  260  A    between atoms: _605  and  _608
REMARK  261  A    between atoms: _610  and  _612
REMARK  262  A    between atoms: _612  and  _613
REMARK  263  A    between atoms: _615  and  _617
REMARK  264  A    between atoms: _617  and  _618
REMARK  265  A    between atoms: _617  and  _620
REMARK  266  A    between atoms: _620  and  _621
REMARK  267  A    between atoms: _625  and  _626
REMARK  268  A    between atoms: _631  and  _633
REMARK  269  A    between atoms: _633  and  _634
REMARK  270  A    between atoms: _633  and  _636
REMARK  271  A    between atoms: _636  and  _637
REMARK  272  A    between atoms: _637  and  _638
REMARK  273  A    between atoms: _641  and  _643
REMARK  274  A    between atoms: _643  and  _644
REMARK  275  A    between atoms: _643  and  _646
REMARK  276  A    between atoms: _646  and  _647
REMARK  277  A    between atoms: _652  and  _653
REMARK  278  A    between atoms: _655  and  _657
REMARK  279  A    between atoms: _657  and  _658
REMARK  280  A    between atoms: _657  and  _660
REMARK  281  A    between atoms: _663  and  _665
REMARK  282  A    between atoms: _665  and  _666
REMARK  283  A    between atoms: _665  and  _668
REMARK  284  A    between atoms: _668  and  _669
REMARK  285  A    between atoms: _672  and  _674
REMARK  286  A    between atoms: _674  and  _675
REMARK  287  A    between atoms: _674  and  _677
REMARK  288  A    between atoms: _677  and  _678
REMARK  289  A    between atoms: _678  and  _679
REMARK  290  A    between atoms: _682  and  _684
REMARK  291  A    between atoms: _684  and  _685
REMARK  292  A    between atoms: _684  and  _687
REMARK  293  A    between atoms: _687  and  _688
REMARK  294  A    between atoms: _688  and  _689
REMARK  295  A    between atoms: _691  and  _693
REMARK  296  A    between atoms: _693  and  _694
REMARK  297  A    between atoms: _696  and  _698
REMARK  298  A    between atoms: _698  and  _699
REMARK  299  A    between atoms: _698  and  _701
REMARK  300  A    between atoms: _701  and  _702
REMARK  301  A    between atoms: _707  and  _708
REMARK  302  A    between atoms: _711  and  _712
REMARK  303  A    between atoms: _718  and  _719
REMARK  304  A    between atoms: _724  and  _726
REMARK  305  A    between atoms: _726  and  _727
REMARK  306  A    between atoms: _726  and  _729
REMARK  307  A    between atoms: _729  and  _730
REMARK  308  A    between atoms: _736  and  _738
REMARK  309  A    between atoms: _738  and  _739
REMARK  310  A    between atoms: _738  and  _741
REMARK  311  A    between atoms: _741  and  _742
REMARK  312  A    between atoms: _748  and  _750
REMARK  313  A    between atoms: _750  and  _751
REMARK  314  A    between atoms: _750  and  _753
REMARK  315  A    between atoms: _753  and  _754
REMARK  316  A    between atoms: _757  and  _759
REMARK  317  A    between atoms: _759  and  _760
REMARK  318  A    between atoms: _759  and  _762
REMARK  319  A    between atoms: _762  and  _763
REMARK  320  A    between atoms: _768  and  _770
REMARK  321  A    between atoms: _770  and  _771
REMARK  322  A    between atoms: _770  and  _773
REMARK  323  A    between atoms: _773  and  _774
REMARK  324  A    between atoms: _780  and  _782
REMARK  325  A    between atoms: _782  and  _783
REMARK  326  A    between atoms: _782  and  _785
REMARK  327  A    between atoms: _785  and  _786
REMARK  328  A    between atoms: _789  and  _791
REMARK  329  A    between atoms: _791  and  _792
REMARK  330  A    between atoms: _791  and  _794
REMARK  331  A    between atoms: _794  and  _795
REMARK  332  A    between atoms: _800  and  _801
REMARK                            x       y       z     vdW  Elec       q    Type
REMARK                         _______ _______ _______ _____ _____    ______ ____
ROOT
ATOM      1  C   THR A   3     -13.479   2.028  20.092  0.00  0.00    +0.246 C 
ATOM      2  N   PRO A   4     -14.099   2.527  21.186  0.00  0.00    -0.272 N 
ATOM      3  CA  PRO A   4     -14.068   1.881  22.509  0.00  0.00    +0.152 C 
ATOM      4  CB  PRO A   4     -15.202   2.594  23.268  0.00  0.00    +0.031 C 
ATOM      5  CG  PRO A   4     -15.120   3.980  22.733  0.00  0.00    +0.024 C 
ATOM      6  CD  PRO A   4     -14.868   3.790  21.242  0.00  0.00    +0.094 C 
ATOM      7  O   THR A   3     -13.005   0.901  20.057  0.00  0.00    -0.273 OA
ENDROOT
BRANCH   3   8
ATOM      8  C   PRO A   4     -14.277   0.368  22.512  0.00  0.00    +0.241 C 
ATOM      9  O   PRO A   4     -13.450  -0.359  23.082  0.00  0.00    -0.273 OA
ATOM     10  N   GLU A   5     -15.353  -0.102  21.878  0.00  0.00    -0.297 N 
ATOM     11  H   GLU A   5     -15.997   0.569  21.413  0.00  0.00    +0.150 HD
BRANCH  10  12
ATOM     12  CA  GLU A   5     -15.655  -1.533  21.816  0.00  0.00    +0.149 C 
BRANCH  12  13
ATOM     13  C   GLU A   5     -14.555  -2.357  21.152  0.00  0.00    +0.241 C 
ATOM     14  O   GLU A   5     -14.469  -3.568  21.385  0.00  0.00    -0.273 OA
ATOM     15  N   TYR A   6     -13.743  -1.707  20.311  0.00  0.00    -0.298 N 
ATOM     16  H   TYR A   6     -13.845  -0.677  20.210  0.00  0.00    +0.150 HD
BRANCH  15  17
ATOM     17  CA  TYR A   6     -12.716  -2.394  19.528  0.00  0.00    +0.141 C 
BRANCH  17  18
ATOM     18  C   TYR A   6     -11.258  -2.237  20.035  0.00  0.00    +0.227 C 
ATOM     19  O   TYR A   6     -10.338  -2.819  19.476  0.00  0.00    -0.286 OA
ENDBRANCH  17  18
BRANCH  17  20
ATOM     20  CB  TYR A   6     -12.848  -2.036  18.020  0.00  0.00    +0.054 C 
BRANCH  20  21
ATOM     21  CG  TYR A   6     -13.932  -2.851  17.336  0.00  0.00    -0.020 A 
ATOM     22  CD2 TYR A   6     -15.286  -2.608  17.608  0.00  0.00    -0.001 A 
ATOM     23  CE2 TYR A   6     -16.299  -3.377  17.003  0.00  0.00    +0.036 A 
ATOM     24  CZ  TYR A   6     -15.956  -4.400  16.144  0.00  0.00    +0.134 A 
ATOM     25  CE1 TYR A   6     -14.630  -4.677  15.860  0.00  0.00    +0.036 A 
ATOM     26  CD1 TYR A   6     -13.615  -3.903  16.475  0.00  0.00    -0.001 A 
BRANCH  24  27
ATOM     27  OH  TYR A   6     -16.961  -5.162  15.574  0.00  0.00    -0.506 OA
ATOM     28  HH  TYR A   6     -17.841  -4.830  15.883  0.00  0.00    +0.292 HD
ENDBRANCH  24  27
ENDBRANCH  20  21
ENDBRANCH  17  20
ENDBRANCH  15  17
ENDBRANCH  12  13
BRANCH  12  29
ATOM     29  CB  GLU A   5     -16.974  -1.786  21.064  0.00  0.00    +0.041 C 
BRANCH  29  30
ATOM     30  CG  GLU A   5     -18.235  -1.498  21.877  0.00  0.00    +0.116 C 
BRANCH  30  31
ATOM     31  CD  GLU A   5     -18.699  -0.044  21.778  0.00  0.00    +0.365 C 
ATOM     32  OE2 GLU A   5     -19.884   0.191  22.146  0.00  0.00    -0.246 OA
ATOM     33  OE1 GLU A   5     -17.899   0.856  21.347  0.00  0.00    -0.246 OA
ENDBRANCH  30  31
ENDBRANCH  29  30
ENDBRANCH  12  29
ENDBRANCH  10  12
ENDBRANCH   3   8
BRANCH   1  34
ATOM     34  CA  THR A   3     -13.373   2.917  18.848  0.00  0.00    +0.176 C 
BRANCH  34  37
ATOM     35  C   GLY A   2     -11.317   4.114  18.282  0.00  0.00    +0.243 C 
ATOM     36  O   GLY A   2     -11.793   5.249  18.475  0.00  0.00    -0.273 OA
ATOM     37  N   THR A   3     -11.985   2.981  18.459  0.00  0.00    -0.295 N 
ATOM     38  H   THR A   3     -11.478   2.086  18.308  0.00  0.00    +0.150 HD
BRANCH  35  39
ATOM     39  CA  GLY A   2      -9.882   3.938  17.857  0.00  0.00    +0.176 C 
BRANCH  39  42
ATOM     40  C   CYS A   1      -7.978   4.997  18.962  0.00  0.00    +0.239 C 
ATOM     41  O   CYS A   1      -7.521   3.935  19.375  0.00  0.00    -0.274 OA
ATOM     42  N   GLY A   2      -9.113   5.097  18.275  0.00  0.00    -0.296 N 
ATOM     43  H   GLY A   2      -9.464   6.044  18.027  0.00  0.00    +0.150 HD
BRANCH  40  44
ATOM     44  CA  CYS A   1      -7.263   6.295  19.234  0.00  0.00    +0.156 C 
BRANCH  44  45
ATOM     45  CB  CYS A   1      -6.683   6.897  17.935  0.00  0.00    +0.095 C 
ATOM     46  SG  CYS A   1      -5.353   5.928  17.120  0.00  0.00    -0.080 S 
ENDBRANCH  44  45
BRANCH  44  47
ATOM     47  N   CYS A   1      -6.236   6.098  20.251  0.00  0.00    -0.237 NA
ATOM     48  H   CYS A   1      -5.749   5.181  20.314  0.00  0.00    +0.142 HD
ENDBRANCH  44  47
ENDBRANCH  40  44
ENDBRANCH  39  42
ENDBRANCH  35  39
ENDBRANCH  34  37
BRANCH  34  49
ATOM     49  CB  THR A   3     -14.160   2.306  17.678  0.00  0.00    +0.137 C 
ATOM     50  CG2 THR A   3     -15.593   1.939  18.081  0.00  0.00    +0.034 C 
BRANCH  49  51
ATOM     51  OG1 THR A   3     -14.140   3.229  16.573  0.00  0.00    -0.382 OA
ATOM     52  HG1 THR A   3     -13.203   3.393  16.298  0.00  0.00    +0.210 HD
ENDBRANCH  49  51
ENDBRANCH  34  49
ENDBRANCH   1  34
TORSDOF 20
REMARK  Name = ../refined-set-2016/3agl/3agl_pocket.pdb
REMARK  332 active torsions:
REMARK  status: ('A' for Active; 'I' for Inactive)
REMARK    1  A    between atoms: _1  and  _3
REMARK    2  A    between atoms: _3  and  _4
REMARK    3  A    between atoms: _3  and  _6
REMARK    4  A    between atoms: _6  and  _7
REMARK    5  A    between atoms: _10  and  _12
REMARK    6  A    between atoms: _12  and  _13
REMARK    7  A    between atoms: _12  and  _15
REMARK    8  A    between atoms: _15  and  _16
REMARK    9  A    between atoms: _19  and  _21
REMARK   10  A    between atoms: _21  and  _22
REMARK   11  A    between atoms: _24  and  _26
REMARK   12  A    between atoms: _26  and  _27
REMARK   13  A    between atoms: _26  and  _29
REMARK   14  A    between atoms: _29  and  _30
REMARK   15  A    between atoms: _33  and  _35
REMARK   16  A    between atoms: _35  and  _36
REMARK   17  A    between atoms: _38  and  _40
REMARK   18  A    between atoms: _40  and  _41
REMARK   19  A    between atoms: _40  and  _43
REMARK   20  A    between atoms: _43  and  _44
REMARK   21  A    between atoms: _46  and  _48
REMARK   22  A    between atoms: _48  and  _49
REMARK   23  A    between atoms: _48  and  _51
REMARK   24  A    between atoms: _51  and  _52
REMARK   25  A    between atoms: _58  and  _60
REMARK   26  A    between atoms: _60  and  _61
REMARK   27  A    between atoms: _63  and  _65
REMARK   28  A    between atoms: _65  and  _66
REMARK   29  A    between atoms: _65  and  _68
REMARK   30  A    between atoms: _68  and  _69
REMARK   31  A    between atoms: _69  and  _70
REMARK   32  A    between atoms: _70  and  _71
REMARK   33  A    between atoms: _80  and  _82
REMARK   34  A    between atoms: _82  and  _83
REMARK   35  A    between atoms: _82  and  _85
REMARK   36  A    between atoms: _88  and  _90
REMARK   37  A    between atoms: _90  and  _91
REMARK   38  A    between atoms: _90  and  _93
REMARK   39  A    between atoms: _93  and  _94
REMARK   40  A    between atoms: _94  and  _95
REMARK   41  A    between atoms: _97  and  _99
REMARK   42  A    between atoms: _99  and  _100
REMARK   43  A    between atoms: _99  and  _102
REMARK   44  A    between atoms: _102  and  _103
REMARK   45  A    between atoms: _106  and  _108
REMARK   46  A    between atoms: _108  and  _109
REMARK   47  A    between atoms: _108  and  _111
REMARK   48  A    between atoms: _111  and  _112
REMARK   49  A    between atoms: _117  and  _118
REMARK   50  A    between atoms: _120  and  _122
REMARK   51  A    between atoms: _122  and  _123
REMARK   52  A    between atoms: _126  and  _128
REMARK   53  A    between atoms: _128  and  _129
REMARK   54  A    between atoms: _128  and  _131
REMARK   55  A    between atoms: _131  and  _132
REMARK   56  A    between atoms: _132  and  _133
REMARK   57  A    between atoms: _135  and  _137
REMARK   58  A    between atoms: _137  and  _138
REMARK   59  A    between atoms: _137  and  _140
REMARK   60  A    between atoms: _140  and  _141
REMARK   61  A    between atoms: _141  and  _142
REMARK   62  A    between atoms: _142  and  _143
REMARK   63  A    between atoms: _143  and  _144
REMARK   64  A    between atoms: _148  and  _150
REMARK   65  A    between atoms: _150  and  _151
REMARK   66  A    between atoms: _150  and  _153
REMARK   67  A    between atoms: _153  and  _154
REMARK   68  A    between atoms: _157  and  _159
REMARK   69  A    between atoms: _159  and  _160
REMARK   70  A    between atoms: _159  and  _162
REMARK   71  A    between atoms: _162  and  _163
REMARK   72  A    between atoms: _166  and  _168
REMARK   73  A    between atoms: _168  and  _169
REMARK   74  A    between atoms: _168  and  _171
REMARK   75  A    between atoms: _171  and  _172
REMARK   76  A    between atoms: _175  and  _177
REMARK   77  A    between atoms: _177  and  _178
REMARK   78  A    between atoms: _177  and  _180
REMARK   79  A    between atoms: _180  and  _181
REMARK   80  A    between atoms: _181  and  _182
REMARK   81  A    between atoms: _182  and  _183
REMARK   82  A    between atoms: _183  and  _184
REMARK   83  A    between atoms: _188  and  _190
REMARK   84  A    between atoms: _190  and  _191
REMARK   85  A    between atoms: _190  and  _193
REMARK   86  A    between atoms: _196  and  _198
REMARK   87  A    between atoms: _198  and  _199
REMARK   88  A    between atoms: _198  and  _201
REMARK   89  A    between atoms: _201  and  _202
REMARK   90  A    between atoms: _205  and  _207
REMARK   91  A    between atoms: _207  and  _208
REMARK   92  A    between atoms: _207  and  _210
REMARK   93  A    between atoms: _210  and  _211
REMARK   94  A    between atoms: _211  and  _212
REMARK   95  A    between atoms: _217  and  _219
REMARK   96  A    between atoms: _219  and  _220
REMARK   97  A    between atoms: _219  and  _222
REMARK   98  A    between atoms: _222  and  _223
REMARK   99  A    between atoms: _228  and  _230
REMARK  100  A    between atoms: _230  and  _231
REMARK  101  A    between atoms: _230  and  _233
REMARK  102  A    between atoms: _233  and  _234
REMARK  103  A    between atoms: _237  and  _239
REMARK  104  A    between atoms: _239  and  _240
REMARK  105  A    between atoms: _239  and  _242
REMARK  106  A    between atoms: _242  and  _243
REMARK  107  A    between atoms: _243  and  _244
REMARK  108  A    between atoms: _247  and  _249
REMARK  109  A    between atoms: _249  and  _250
REMARK  110  A    between atoms: _249  and  _252
REMARK  111  A    between atoms: _252  and  _253
REMARK  112  A    between atoms: _256  and  _258
REMARK  113  A    between atoms: _258  and  _259
REMARK  114  A    between atoms: _258  and  _261
REMARK  115  A    between atoms: _264  and  _266
REMARK  116  A    between atoms: _266  and  _267
REMARK  117  A    between atoms: _266  and  _269
REMARK  118  A    between atoms: _269  and  _270
REMARK  119  A    between atoms: _270  and  _271
REMARK  120  A    between atoms: _271  and  _272
REMARK  121  A    between atoms: _272  and  _273
REMARK  122  A    between atoms: _277  and  _279
REMARK  123  A    between atoms: _279  and  _280
REMARK  124  A    between atoms: _279  and  _282
REMARK  125  A    between atoms: _282  and  _283
REMARK  126  A    between atoms: _286  and  _288
REMARK  127  A    between atoms: _288  and  _289
REMARK  128  A    between atoms: _288  and  _291
REMARK  129  A    between atoms: _291  and  _292
REMARK  130  A    between atoms: _292  and  _293
REMARK  131  A    between atoms: _296  and  _298
REMARK  132  A    between atoms: _298  and  _299
REMARK  133  A    between atoms: _298  and  _301
REMARK  134  A    between atoms: _301  and  _302
REMARK  135  A    between atoms: _302  and  _303
REMARK  136  A    between atoms: _305  and  _307
REMARK  137  A    between atoms: _307  and  _308
REMARK  138  A    between atoms: _307  and  _310
REMARK  139  A    between atoms: _313  and  _315
REMARK  140  A    between atoms: _315  and  _316
REMARK  141  A    between atoms: _315  and  _318
REMARK  142  A    between atoms: _318  and  _319
REMARK  143  A    between atoms: _319  and  _320
REMARK  144  A    between atoms: _322  and  _324
REMARK  145  A    between atoms: _324  and  _325
REMARK  146  A    between atoms: _324  and  _327
REMARK  147  A    between atoms: _327  and  _328
REMARK  148  A    between atoms: _328  and  _329
REMARK  149  A    between atoms: _332  and  _334
REMARK  150  A    between atoms: _334  and  _335
REMARK  151  A    between atoms: _334  and  _337
REMARK  152  A    between atoms: _337  and  _338
REMARK  153  A    between atoms: _343  and  _344
REMARK  154  A    between atoms: _346  and  _348
REMARK  155  A    between atoms: _348  and  _349
REMARK  156  A    between atoms: _348  and  _351
REMARK  157  A    between atoms: _355  and  _356
REMARK  158  A    between atoms: _361  and  _363
REMARK  159  A    between atoms: _363  and  _364
REMARK  160  A    between atoms: _366  and  _368
REMARK  161  A    between atoms: _368  and  _369
REMARK  162  A    between atoms: _371  and  _373
REMARK  163  A    between atoms: _373  and  _374
REMARK  164  A    between atoms: _373  and  _376
REMARK  165  A    between atoms: _376  and  _377
REMARK  166  A    between atoms: _377  and  _378
REMARK  167  A    between atoms: _381  and  _383
REMARK  168  A    between atoms: _383  and  _384
REMARK  169  A    between atoms: _383  and  _386
REMARK  170  A    between atoms: _386  and  _387
REMARK  171  A    between atoms: _387  and  _388
REMARK  172  A    between atoms: _390  and  _392
REMARK  173  A    between atoms: _392  and  _393
REMARK  174  A    between atoms: _392  and  _395
REMARK  175  A    between atoms: _395  and  _396
REMARK  176  A    between atoms: _402  and  _404
REMARK  177  A    between atoms: _404  and  _405
REMARK  178  A    between atoms: _404  and  _407
REMARK  179  A    between atoms: _407  and  _408
REMARK  180  A    between atoms: _410  and  _412
REMARK  181  A    between atoms: _412  and  _413
REMARK  182  A    between atoms: _412  and  _415
REMARK  183  A    between atoms: _415  and  _416
REMARK  184  A    between atoms: _419  and  _421
REMARK  185  A    between atoms: _421  and  _422
REMARK  186  A    between atoms: _421  and  _424
REMARK  187  A    between atoms: _424  and  _425
REMARK  188  A    between atoms: _425  and  _426
REMARK  189  A    between atoms: _426  and  _427
REMARK  190  A    between atoms: _436  and  _438
REMARK  191  A    between atoms: _438  and  _439
REMARK  192  A    between atoms: _438  and  _441
REMARK  193  A    between atoms: _441  and  _442
REMARK  194  A    between atoms: _447  and  _448
REMARK  195  A    between atoms: _450  and  _452
REMARK  196  A    between atoms: _452  and  _453
REMARK  197  A    between atoms: _452  and  _455
REMARK  198  A    between atoms: _455  and  _456
REMARK  199  A    between atoms: _459  and  _461
REMARK  200  A    between atoms: _461  and  _462
REMARK  201  A    between atoms: _461  and  _464
REMARK  202  A    between atoms: _464  and  _465
REMARK  203  A    between atoms: _468  and  _470
REMARK  204  A    between atoms: _470  and  _471
REMARK  205  A    between atoms: _470  and  _473
REMARK  206  A    between atoms: _473  and  _474
REMARK  207  A    between atoms: _474  and  _475
REMARK  208  A    between atoms: _475  and  _476
REMARK  209  A    between atoms: _476  and  _477
REMARK  210  A    between atoms: _482  and  _483
REMARK  211  A    between atoms: _488  and  _490
REMARK  212  A    between atoms: _490  and  _491
REMARK  213  A    between atoms: _490  and  _493
REMARK  214  A    between atoms: _493  and  _494
REMARK  215  A    between atoms: _494  and  _495
REMARK  216  A    between atoms: _498  and  _500
REMARK  217  A    between atoms: _500  and  _501
REMARK  218  A    between atoms: _500  and  _503
REMARK  219  A    between atoms: _503  and  _504
REMARK  220  A    between atoms: _509  and  _511
REMARK  221  A    between atoms: _511  and  _512
REMARK  222  A    between atoms: _511  and  _514
REMARK  223  A    between atoms: _514  and  _515
REMARK  224  A    between atoms: _518  and  _520
REMARK  225  A    between atoms: _520  and  _521
REMARK  226  A    between atoms: _520  and  _523
REMARK  227  A    between atoms: _523  and  _524
REMARK  228  A    between atoms: _527  and  _529
REMARK  229  A    between atoms: _529  and  _530
REMARK  230  A    between atoms: _529  and  _532
REMARK  231  A    between atoms: _532  and  _533
REMARK  232  A    between atoms: _536  and  _538
REMARK  233  A    between atoms: _538  and  _539
REMARK  234  A    between atoms: _538  and  _541
REMARK  235  A    between atoms: _541  and  _542
REMARK  236  A    between atoms: _542  and  _543
REMARK  237  A    between atoms: _548  and  _550
REMARK  238  A    between atoms: _550  and  _551
REMARK  239  A    between atoms: _550  and  _553
REMARK  240  A    between atoms: _556  and  _558
REMARK  241  A    between atoms: _558  and  _559
REMARK  242  A    between atoms: _558  and  _561
REMARK  243  A    between atoms: _561  and  _562
REMARK  244  A    between atoms: _565  and  _567
REMARK  245  A    between atoms: _567  and  _568
REMARK  246  A    between atoms: _567  and  _570
REMARK  247  A    between atoms: _570  and  _571
REMARK  248  A    between atoms: _574  and  _576
REMARK  249  A    between atoms: _576  and  _577
REMARK  250  A    between atoms: _576  and  _579
REMARK  251  A    between atoms: _579  and  _580
REMARK  252  A    between atoms: _586  and  _588
REMARK  253  A    between atoms: _588  and  _589
REMARK  254  A    between atoms: _591  and  _593
REMARK  255  A    between atoms: _593  and  _594
REMARK  256  A    between atoms: _593  and  _596
REMARK  257  A    between atoms: _596  and  _597
REMARK  258  A    between atoms: _603  and  _605
REMARK  259  A    between atoms: _605  and  _606
REMARK  260  A    between atoms: _605  and  _608
REMARK  261  A    between atoms: _610  and  _612
REMARK  262  A    between atoms: _612  and  _613
REMARK  263  A    between atoms: _615  and  _617
REMARK  264  A    between atoms: _617  and  _618
REMARK  265  A    between atoms: _617  and  _620
REMARK  266  A    between atoms: _620  and  _621
REMARK  267  A    between atoms: _625  and  _626
REMARK  268  A    between atoms: _631  and  _633
REMARK  269  A    between atoms: _633  and  _634
REMARK  270  A    between atoms: _633  and  _636
REMARK  271  A    between atoms: _636  and  _637
REMARK  272  A    between atoms: _637  and  _638
REMARK  273  A    between atoms: _641  and  _643
REMARK  274  A    between atoms: _643  and  _644
REMARK  275  A    between atoms: _643  and  _646
REMARK  276  A    between atoms: _646  and  _647
REMARK  277  A    between atoms: _652  and  _653
REMARK  278  A    between atoms: _655  and  _657
REMARK  279  A    between atoms: _657  and  _658
REMARK  280  A    between atoms: _657  and  _660
REMARK  281  A    between atoms: _663  and  _665
REMARK  282  A    between atoms: _665  and  _666
REMARK  283  A    between atoms: _665  and  _668
REMARK  284  A    between atoms: _668  and  _669
REMARK  285  A    between atoms: _672  and  _674
REMARK  286  A    between atoms: _674  and  _675
REMARK  287  A    between atoms: _674  and  _677
REMARK  288  A    between atoms: _677  and  _678
REMARK  289  A    between atoms: _678  and  _679
REMARK  290  A    between atoms: _682  and  _684
REMARK  291  A    between atoms: _684  and  _685
REMARK  292  A    between atoms: _684  and  _687
REMARK  293  A    between atoms: _687  and  _688
REMARK  294  A    between atoms: _688  and  _689
REMARK  295  A    between atoms: _691  and  _693
REMARK  296  A    between atoms: _693  and  _694
REMARK  297  A    between atoms: _696  and  _698
REMARK  298  A    between atoms: _698  and  _699
REMARK  299  A    between atoms: _698  and  _701
REMARK  300  A    between atoms: _701  and  _702
REMARK  301  A    between atoms: _707  and  _708
REMARK  302  A    between atoms: _711  and  _712
REMARK  303  A    between atoms: _718  and  _719
REMARK  304  A    between atoms: _724  and  _726
REMARK  305  A    between atoms: _726  and  _727
REMARK  306  A    between atoms: _726  and  _729
REMARK  307  A    between atoms: _729  and  _730
REMARK  308  A    between atoms: _736  and  _738
REMARK  309  A    between atoms: _738  and  _739
REMARK  310  A    between atoms: _738  and  _741
REMARK  311  A    between atoms: _741  and  _742
REMARK  312  A    between atoms: _748  and  _750
REMARK  313  A    between atoms: _750  and  _751
REMARK  314  A    between atoms: _750  and  _753
REMARK  315  A    between atoms: _753  and  _754
REMARK  316  A    between atoms: _757  and  _759
REMARK  317  A    between atoms: _759  and  _760
REMARK  318  A    between atoms: _759  and  _762
REMARK  319  A    between atoms: _762  and  _763
REMARK  320  A    between atoms: _768  and  _770
REMARK  321  A    between atoms: _770  and  _771
REMARK  322  A    between atoms: _770  and  _773
REMARK  323  A    between atoms: _773  and  _774
REMARK  324  A    between atoms: _780  and  _782
REMARK  325  A    between atoms: _782  and  _783
REMARK  326  A    between atoms: _782  and  _785
REMARK  327  A    between atoms: _785  and  _786
REMARK  328  A    between atoms: _789  and  _791
REMARK  329  A    between atoms: _791  and  _792
REMARK  330  A    between atoms: _791  and  _794
REMARK  331  A    between atoms: _794  and  _795
REMARK  332  A    between atoms: _800  and  _801
REMARK                            x       y       z     vdW  Elec       q    Type
REMARK                         _______ _______ _______ _____ _____    ______ ____
ROOT
ATOM      1  C   VAL A   1     -14.970  -8.388  16.915  0.00  0.00    +0.238 C 
ATOM      2  O   VAL A   1     -16.160  -8.651  17.104  0.00  0.00    -0.274 OA
ATOM      3  N   LEU A   2     -14.461  -8.123  15.714  0.00  0.00    -0.298 N 
ATOM      4  H   LEU A   2     -13.443  -7.924  15.640  0.00  0.00    +0.150 HD
ENDROOT
BRANCH   1   5
ATOM      5  CA  VAL A   1     -13.981  -8.359  18.074  0.00  0.00    +0.145 C 
BRANCH   5   6
ATOM      6  CB  VAL A   1     -13.716  -6.890  18.556  0.00  0.00    +0.025 C 
ATOM      7  CG2 VAL A   1     -12.702  -6.877  19.708  0.00  0.00    +0.002 C 
ATOM      8  CG1 VAL A   1     -15.022  -6.218  18.981  0.00  0.00    +0.002 C 
ENDBRANCH   5   6
BRANCH   5   9
ATOM      9  N   VAL A   1     -12.721  -9.073  17.739  0.00  0.00    -0.238 NA
ATOM     10  H   VAL A   1     -11.819  -8.555  17.748  0.00  0.00    +0.142 HD
ENDBRANCH   5   9
ENDBRANCH   1   5
BRANCH   3  11
ATOM     11  CA  LEU A   2     -15.263  -8.098  14.497  0.00  0.00    +0.137 C 
BRANCH  11  12
ATOM     12  C   LEU A   2     -15.921  -9.454  14.212  0.00  0.00    +0.227 C 
ATOM     13  O   LEU A   2     -17.125  -9.528  13.937  0.00  0.00    -0.286 OA
ENDBRANCH  11  12
BRANCH  11  14
ATOM     14  CB  LEU A   2     -14.415  -7.673  13.278  0.00  0.00    +0.028 C 
BRANCH  14  15
ATOM     15  CG  LEU A   2     -15.259  -7.600  11.978  0.00  0.00    +0.002 C 
ATOM     16  CD2 LEU A   2     -16.160  -6.375  11.960  0.00  0.00    +0.000 C 
ATOM     17  CD1 LEU A   2     -14.402  -7.694  10.704  0.00  0.00    +0.000 C 
ENDBRANCH  14  15
ENDBRANCH  11  14
ENDBRANCH   3  11
TORSDOF 7
REMARK  Name = ../refined-set-2016/3agl/3agl_pocket.pdb
REMARK  332 active torsions:
REMARK  status: ('A' for Active; 'I' for Inactive)
REMARK    1  A    between atoms: _1  and  _3
REMARK    2  A    between atoms: _3  and  _4
REMARK    3  A    between atoms: _3  and  _6
REMARK    4  A    between atoms: _6  and  _7
REMARK    5  A    between atoms: _10  and  _12
REMARK    6  A    between atoms: _12  and  _13
REMARK    7  A    between atoms: _12  and  _15
REMARK    8  A    between atoms: _15  and  _16
REMARK    9  A    between atoms: _19  and  _21
REMARK   10  A    between atoms: _21  and  _22
REMARK   11  A    between atoms: _24  and  _26
REMARK   12  A    between atoms: _26  and  _27
REMARK   13  A    between atoms: _26  and  _29
REMARK   14  A    between atoms: _29  and  _30
REMARK   15  A    between atoms: _33  and  _35
REMARK   16  A    between atoms: _35  and  _36
REMARK   17  A    between atoms: _38  and  _40
REMARK   18  A    between atoms: _40  and  _41
REMARK   19  A    between atoms: _40  and  _43
REMARK   20  A    between atoms: _43  and  _44
REMARK   21  A    between atoms: _46  and  _48
REMARK   22  A    between atoms: _48  and  _49
REMARK   23  A    between atoms: _48  and  _51
REMARK   24  A    between atoms: _51  and  _52
REMARK   25  A    between atoms: _58  and  _60
REMARK   26  A    between atoms: _60  and  _61
REMARK   27  A    between atoms: _63  and  _65
REMARK   28  A    between atoms: _65  and  _66
REMARK   29  A    between atoms: _65  and  _68
REMARK   30  A    between atoms: _68  and  _69
REMARK   31  A    between atoms: _69  and  _70
REMARK   32  A    between atoms: _70  and  _71
REMARK   33  A    between atoms: _80  and  _82
REMARK   34  A    between atoms: _82  and  _83
REMARK   35  A    between atoms: _82  and  _85
REMARK   36  A    between atoms: _88  and  _90
REMARK   37  A    between atoms: _90  and  _91
REMARK   38  A    between atoms: _90  and  _93
REMARK   39  A    between atoms: _93  and  _94
REMARK   40  A    between atoms: _94  and  _95
REMARK   41  A    between atoms: _97  and  _99
REMARK   42  A    between atoms: _99  and  _100
REMARK   43  A    between atoms: _99  and  _102
REMARK   44  A    between atoms: _102  and  _103
REMARK   45  A    between atoms: _106  and  _108
REMARK   46  A    between atoms: _108  and  _109
REMARK   47  A    between atoms: _108  and  _111
REMARK   48  A    between atoms: _111  and  _112
REMARK   49  A    between atoms: _117  and  _118
REMARK   50  A    between atoms: _120  and  _122
REMARK   51  A    between atoms: _122  and  _123
REMARK   52  A    between atoms: _126  and  _128
REMARK   53  A    between atoms: _128  and  _129
REMARK   54  A    between atoms: _128  and  _131
REMARK   55  A    between atoms: _131  and  _132
REMARK   56  A    between atoms: _132  and  _133
REMARK   57  A    between atoms: _135  and  _137
REMARK   58  A    between atoms: _137  and  _138
REMARK   59  A    between atoms: _137  and  _140
REMARK   60  A    between atoms: _140  and  _141
REMARK   61  A    between atoms: _141  and  _142
REMARK   62  A    between atoms: _142  and  _143
REMARK   63  A    between atoms: _143  and  _144
REMARK   64  A    between atoms: _148  and  _150
REMARK   65  A    between atoms: _150  and  _151
REMARK   66  A    between atoms: _150  and  _153
REMARK   67  A    between atoms: _153  and  _154
REMARK   68  A    between atoms: _157  and  _159
REMARK   69  A    between atoms: _159  and  _160
REMARK   70  A    between atoms: _159  and  _162
REMARK   71  A    between atoms: _162  and  _163
REMARK   72  A    between atoms: _166  and  _168
REMARK   73  A    between atoms: _168  and  _169
REMARK   74  A    between atoms: _168  and  _171
REMARK   75  A    between atoms: _171  and  _172
REMARK   76  A    between atoms: _175  and  _177
REMARK   77  A    between atoms: _177  and  _178
REMARK   78  A    between atoms: _177  and  _180
REMARK   79  A    between atoms: _180  and  _181
REMARK   80  A    between atoms: _181  and  _182
REMARK   81  A    between atoms: _182  and  _183
REMARK   82  A    between atoms: _183  and  _184
REMARK   83  A    between atoms: _188  and  _190
REMARK   84  A    between atoms: _190  and  _191
REMARK   85  A    between atoms: _190  and  _193
REMARK   86  A    between atoms: _196  and  _198
REMARK   87  A    between atoms: _198  and  _199
REMARK   88  A    between atoms: _198  and  _201
REMARK   89  A    between atoms: _201  and  _202
REMARK   90  A    between atoms: _205  and  _207
REMARK   91  A    between atoms: _207  and  _208
REMARK   92  A    between atoms: _207  and  _210
REMARK   93  A    between atoms: _210  and  _211
REMARK   94  A    between atoms: _211  and  _212
REMARK   95  A    between atoms: _217  and  _219
REMARK   96  A    between atoms: _219  and  _220
REMARK   97  A    between atoms: _219  and  _222
REMARK   98  A    between atoms: _222  and  _223
REMARK   99  A    between atoms: _228  and  _230
REMARK  100  A    between atoms: _230  and  _231
REMARK  101  A    between atoms: _230  and  _233
REMARK  102  A    between atoms: _233  and  _234
REMARK  103  A    between atoms: _237  and  _239
REMARK  104  A    between atoms: _239  and  _240
REMARK  105  A    between atoms: _239  and  _242
REMARK  106  A    between atoms: _242  and  _243
REMARK  107  A    between atoms: _243  and  _244
REMARK  108  A    between atoms: _247  and  _249
REMARK  109  A    between atoms: _249  and  _250
REMARK  110  A    between atoms: _249  and  _252
REMARK  111  A    between atoms: _252  and  _253
REMARK  112  A    between atoms: _256  and  _258
REMARK  113  A    between atoms: _258  and  _259
REMARK  114  A    between atoms: _258  and  _261
REMARK  115  A    between atoms: _264  and  _266
REMARK  116  A    between atoms: _266  and  _267
REMARK  117  A    between atoms: _266  and  _269
REMARK  118  A    between atoms: _269  and  _270
REMARK  119  A    between atoms: _270  and  _271
REMARK  120  A    between atoms: _271  and  _272
REMARK  121  A    between atoms: _272  and  _273
REMARK  122  A    between atoms: _277  and  _279
REMARK  123  A    between atoms: _279  and  _280
REMARK  124  A    between atoms: _279  and  _282
REMARK  125  A    between atoms: _282  and  _283
REMARK  126  A    between atoms: _286  and  _288
REMARK  127  A    between atoms: _288  and  _289
REMARK  128  A    between atoms: _288  and  _291
REMARK  129  A    between atoms: _291  and  _292
REMARK  130  A    between atoms: _292  and  _293
REMARK  131  A    between atoms: _296  and  _298
REMARK  132  A    between atoms: _298  and  _299
REMARK  133  A    between atoms: _298  and  _301
REMARK  134  A    between atoms: _301  and  _302
REMARK  135  A    between atoms: _302  and  _303
REMARK  136  A    between atoms: _305  and  _307
REMARK  137  A    between atoms: _307  and  _308
REMARK  138  A    between atoms: _307  and  _310
REMARK  139  A    between atoms: _313  and  _315
REMARK  140  A    between atoms: _315  and  _316
REMARK  141  A    between atoms: _315  and  _318
REMARK  142  A    between atoms: _318  and  _319
REMARK  143  A    between atoms: _319  and  _320
REMARK  144  A    between atoms: _322  and  _324
REMARK  145  A    between atoms: _324  and  _325
REMARK  146  A    between atoms: _324  and  _327
REMARK  147  A    between atoms: _327  and  _328
REMARK  148  A    between atoms: _328  and  _329
REMARK  149  A    between atoms: _332  and  _334
REMARK  150  A    between atoms: _334  and  _335
REMARK  151  A    between atoms: _334  and  _337
REMARK  152  A    between atoms: _337  and  _338
REMARK  153  A    between atoms: _343  and  _344
REMARK  154  A    between atoms: _346  and  _348
REMARK  155  A    between atoms: _348  and  _349
REMARK  156  A    between atoms: _348  and  _351
REMARK  157  A    between atoms: _355  and  _356
REMARK  158  A    between atoms: _361  and  _363
REMARK  159  A    between atoms: _363  and  _364
REMARK  160  A    between atoms: _366  and  _368
REMARK  161  A    between atoms: _368  and  _369
REMARK  162  A    between atoms: _371  and  _373
REMARK  163  A    between atoms: _373  and  _374
REMARK  164  A    between atoms: _373  and  _376
REMARK  165  A    between atoms: _376  and  _377
REMARK  166  A    between atoms: _377  and  _378
REMARK  167  A    between atoms: _381  and  _383
REMARK  168  A    between atoms: _383  and  _384
REMARK  169  A    between atoms: _383  and  _386
REMARK  170  A    between atoms: _386  and  _387
REMARK  171  A    between atoms: _387  and  _388
REMARK  172  A    between atoms: _390  and  _392
REMARK  173  A    between atoms: _392  and  _393
REMARK  174  A    between atoms: _392  and  _395
REMARK  175  A    between atoms: _395  and  _396
REMARK  176  A    between atoms: _402  and  _404
REMARK  177  A    between atoms: _404  and  _405
REMARK  178  A    between atoms: _404  and  _407
REMARK  179  A    between atoms: _407  and  _408
REMARK  180  A    between atoms: _410  and  _412
REMARK  181  A    between atoms: _412  and  _413
REMARK  182  A    between atoms: _412  and  _415
REMARK  183  A    between atoms: _415  and  _416
REMARK  184  A    between atoms: _419  and  _421
REMARK  185  A    between atoms: _421  and  _422
REMARK  186  A    between atoms: _421  and  _424
REMARK  187  A    between atoms: _424  and  _425
REMARK  188  A    between atoms: _425  and  _426
REMARK  189  A    between atoms: _426  and  _427
REMARK  190  A    between atoms: _436  and  _438
REMARK  191  A    between atoms: _438  and  _439
REMARK  192  A    between atoms: _438  and  _441
REMARK  193  A    between atoms: _441  and  _442
REMARK  194  A    between atoms: _447  and  _448
REMARK  195  A    between atoms: _450  and  _452
REMARK  196  A    between atoms: _452  and  _453
REMARK  197  A    between atoms: _452  and  _455
REMARK  198  A    between atoms: _455  and  _456
REMARK  199  A    between atoms: _459  and  _461
REMARK  200  A    between atoms: _461  and  _462
REMARK  201  A    between atoms: _461  and  _464
REMARK  202  A    between atoms: _464  and  _465
REMARK  203  A    between atoms: _468  and  _470
REMARK  204  A    between atoms: _470  and  _471
REMARK  205  A    between atoms: _470  and  _473
REMARK  206  A    between atoms: _473  and  _474
REMARK  207  A    between atoms: _474  and  _475
REMARK  208  A    between atoms: _475  and  _476
REMARK  209  A    between atoms: _476  and  _477
REMARK  210  A    between atoms: _482  and  _483
REMARK  211  A    between atoms: _488  and  _490
REMARK  212  A    between atoms: _490  and  _491
REMARK  213  A    between atoms: _490  and  _493
REMARK  214  A    between atoms: _493  and  _494
REMARK  215  A    between atoms: _494  and  _495
REMARK  216  A    between atoms: _498  and  _500
REMARK  217  A    between atoms: _500  and  _501
REMARK  218  A    between atoms: _500  and  _503
REMARK  219  A    between atoms: _503  and  _504
REMARK  220  A    between atoms: _509  and  _511
REMARK  221  A    between atoms: _511  and  _512
REMARK  222  A    between atoms: _511  and  _514
REMARK  223  A    between atoms: _514  and  _515
REMARK  224  A    between atoms: _518  and  _520
REMARK  225  A    between atoms: _520  and  _521
REMARK  226  A    between atoms: _520  and  _523
REMARK  227  A    between atoms: _523  and  _524
REMARK  228  A    between atoms: _527  and  _529
REMARK  229  A    between atoms: _529  and  _530
REMARK  230  A    between atoms: _529  and  _532
REMARK  231  A    between atoms: _532  and  _533
REMARK  232  A    between atoms: _536  and  _538
REMARK  233  A    between atoms: _538  and  _539
REMARK  234  A    between atoms: _538  and  _541
REMARK  235  A    between atoms: _541  and  _542
REMARK  236  A    between atoms: _542  and  _543
REMARK  237  A    between atoms: _548  and  _550
REMARK  238  A    between atoms: _550  and  _551
REMARK  239  A    between atoms: _550  and  _553
REMARK  240  A    between atoms: _556  and  _558
REMARK  241  A    between atoms: _558  and  _559
REMARK  242  A    between atoms: _558  and  _561
REMARK  243  A    between atoms: _561  and  _562
REMARK  244  A    between atoms: _565  and  _567
REMARK  245  A    between atoms: _567  and  _568
REMARK  246  A    between atoms: _567  and  _570
REMARK  247  A    between atoms: _570  and  _571
REMARK  248  A    between atoms: _574  and  _576
REMARK  249  A    between atoms: _576  and  _577
REMARK  250  A    between atoms: _576  and  _579
REMARK  251  A    between atoms: _579  and  _580
REMARK  252  A    between atoms: _586  and  _588
REMARK  253  A    between atoms: _588  and  _589
REMARK  254  A    between atoms: _591  and  _593
REMARK  255  A    between atoms: _593  and  _594
REMARK  256  A    between atoms: _593  and  _596
REMARK  257  A    between atoms: _596  and  _597
REMARK  258  A    between atoms: _603  and  _605
REMARK  259  A    between atoms: _605  and  _606
REMARK  260  A    between atoms: _605  and  _608
REMARK  261  A    between atoms: _610  and  _612
REMARK  262  A    between atoms: _612  and  _613
REMARK  263  A    between atoms: _615  and  _617
REMARK  264  A    between atoms: _617  and  _618
REMARK  265  A    between atoms: _617  and  _620
REMARK  266  A    between atoms: _620  and  _621
REMARK  267  A    between atoms: _625  and  _626
REMARK  268  A    between atoms: _631  and  _633
REMARK  269  A    between atoms: _633  and  _634
REMARK  270  A    between atoms: _633  and  _636
REMARK  271  A    between atoms: _636  and  _637
REMARK  272  A    between atoms: _637  and  _638
REMARK  273  A    between atoms: _641  and  _643
REMARK  274  A    between atoms: _643  and  _644
REMARK  275  A    between atoms: _643  and  _646
REMARK  276  A    between atoms: _646  and  _647
REMARK  277  A    between atoms: _652  and  _653
REMARK  278  A    between atoms: _655  and  _657
REMARK  279  A    between atoms: _657  and  _658
REMARK  280  A    between atoms: _657  and  _660
REMARK  281  A    between atoms: _663  and  _665
REMARK  282  A    between atoms: _665  and  _666
REMARK  283  A    between atoms: _665  and  _668
REMARK  284  A    between atoms: _668  and  _669
REMARK  285  A    between atoms: _672  and  _674
REMARK  286  A    between atoms: _674  and  _675
REMARK  287  A    between atoms: _674  and  _677
REMARK  288  A    between atoms: _677  and  _678
REMARK  289  A    between atoms: _678  and  _679
REMARK  290  A    between atoms: _682  and  _684
REMARK  291  A    between atoms: _684  and  _685
REMARK  292  A    between atoms: _684  and  _687
REMARK  293  A    between atoms: _687  and  _688
REMARK  294  A    between atoms: _688  and  _689
REMARK  295  A    between atoms: _691  and  _693
REMARK  296  A    between atoms: _693  and  _694
REMARK  297  A    between atoms: _696  and  _698
REMARK  298  A    between atoms: _698  and  _699
REMARK  299  A    between atoms: _698  and  _701
REMARK  300  A    between atoms: _701  and  _702
REMARK  301  A    between atoms: _707  and  _708
REMARK  302  A    between atoms: _711  and  _712
REMARK  303  A    between atoms: _718  and  _719
REMARK  304  A    between atoms: _724  and  _726
REMARK  305  A    between atoms: _726  and  _727
REMARK  306  A    between atoms: _726  and  _729
REMARK  307  A    between atoms: _729  and  _730
REMARK  308  A    between atoms: _736  and  _738
REMARK  309  A    between atoms: _738  and  _739
REMARK  310  A    between atoms: _738  and  _741
REMARK  311  A    between atoms: _741  and  _742
REMARK  312  A    between atoms: _748  and  _750
REMARK  313  A    between atoms: _750  and  _751
REMARK  314  A    between atoms: _750  and  _753
REMARK  315  A    between atoms: _753  and  _754
REMARK  316  A    between atoms: _757  and  _759
REMARK  317  A    between atoms: _759  and  _760
REMARK  318  A    between atoms: _759  and  _762
REMARK  319  A    between atoms: _762  and  _763
REMARK  320  A    between atoms: _768  and  _770
REMARK  321  A    between atoms: _770  and  _771
REMARK  322  A    between atoms: _770  and  _773
REMARK  323  A    between atoms: _773  and  _774
REMARK  324  A    between atoms: _780  and  _782
REMARK  325  A    between atoms: _782  and  _783
REMARK  326  A    between atoms: _782  and  _785
REMARK  327  A    between atoms: _785  and  _786
REMARK  328  A    between atoms: _789  and  _791
REMARK  329  A    between atoms: _791  and  _792
REMARK  330  A    between atoms: _791  and  _794
REMARK  331  A    between atoms: _794  and  _795
REMARK  332  A    between atoms: _800  and  _801
REMARK                            x       y       z     vdW  Elec       q    Type
REMARK                         _______ _______ _______ _____ _____    ______ ____
ROOT
ATOM      1  C   GLU A   1     -20.515  -9.695  15.258  0.00  0.00    +0.238 C 
ATOM      2  O   GLU A   1     -21.739  -9.777  15.319  0.00  0.00    -0.274 OA
ATOM      3  N   MET A   2     -19.837 -10.014  14.151  0.00  0.00    -0.298 N 
ATOM      4  H   MET A   2     -18.810  -9.855  14.112  0.00  0.00    +0.150 HD
ENDROOT
BRANCH   1   5
ATOM      5  CA  GLU A   1     -19.717  -9.194  16.472  0.00  0.00    +0.145 C 
BRANCH   5   6
ATOM      6  N   GLU A   1     -18.522 -10.000  16.770  0.00  0.00    -0.238 NA
ATOM      7  H   GLU A   1     -17.576  -9.569  16.737  0.00  0.00    +0.142 HD
ENDBRANCH   5   6
BRANCH   5   8
ATOM      8  CB  GLU A   1     -19.382  -7.699  16.334  0.00  0.00    +0.038 C 
BRANCH   8   9
ATOM      9  CG  GLU A   1     -20.637  -6.823  16.251  0.00  0.00    +0.116 C 
BRANCH   9  10
ATOM     10  CD  GLU A   1     -20.363  -5.322  16.389  0.00  0.00    +0.365 C 
ATOM     11  OE2 GLU A   1     -21.332  -4.606  16.657  0.00  0.00    -0.246 OA
ATOM     12  OE1 GLU A   1     -19.217  -4.851  16.212  0.00  0.00    -0.246 OA
ENDBRANCH   9  10
ENDBRANCH   8   9
ENDBRANCH   5   8
ENDBRANCH   1   5
BRANCH   3  13
ATOM     13  CA  MET A   2     -20.529 -10.588  12.987  0.00  0.00    +0.138 C 
BRANCH  13  14
ATOM     14  C   MET A   2     -21.332 -11.850  13.327  0.00  0.00    +0.227 C 
ATOM     15  O   MET A   2     -22.467 -12.003  12.895  0.00  0.00    -0.286 OA
ENDBRANCH  13  14
BRANCH  13  16
ATOM     16  CB  MET A   2     -19.551 -10.890  11.824  0.00  0.00    +0.039 C 
BRANCH  16  17
ATOM     17  CG  MET A   2     -18.939  -9.627  11.189  0.00  0.00    +0.060 C 
BRANCH  17  18
ATOM     18  SD  MET A   2     -17.994  -9.969   9.693  0.00  0.00    -0.139 S 
ATOM     19  CE  MET A   2     -16.623 -10.946  10.302  0.00  0.00    +0.069 C 
ENDBRANCH  17  18
ENDBRANCH  16  17
ENDBRANCH  13  16
ENDBRANCH   3  13
TORSDOF 10
REMARK  Name = ../refined-set-2016/3agl/3agl_pocket.pdb
REMARK  332 active torsions:
REMARK  status: ('A' for Active; 'I' for Inactive)
REMARK    1  A    between atoms: _1  and  _3
REMARK    2  A    between atoms: _3  and  _4
REMARK    3  A    between atoms: _3  and  _6
REMARK    4  A    between atoms: _6  and  _7
REMARK    5  A    between atoms: _10  and  _12
REMARK    6  A    between atoms: _12  and  _13
REMARK    7  A    between atoms: _12  and  _15
REMARK    8  A    between atoms: _15  and  _16
REMARK    9  A    between atoms: _19  and  _21
REMARK   10  A    between atoms: _21  and  _22
REMARK   11  A    between atoms: _24  and  _26
REMARK   12  A    between atoms: _26  and  _27
REMARK   13  A    between atoms: _26  and  _29
REMARK   14  A    between atoms: _29  and  _30
REMARK   15  A    between atoms: _33  and  _35
REMARK   16  A    between atoms: _35  and  _36
REMARK   17  A    between atoms: _38  and  _40
REMARK   18  A    between atoms: _40  and  _41
REMARK   19  A    between atoms: _40  and  _43
REMARK   20  A    between atoms: _43  and  _44
REMARK   21  A    between atoms: _46  and  _48
REMARK   22  A    between atoms: _48  and  _49
REMARK   23  A    between atoms: _48  and  _51
REMARK   24  A    between atoms: _51  and  _52
REMARK   25  A    between atoms: _58  and  _60
REMARK   26  A    between atoms: _60  and  _61
REMARK   27  A    between atoms: _63  and  _65
REMARK   28  A    between atoms: _65  and  _66
REMARK   29  A    between atoms: _65  and  _68
REMARK   30  A    between atoms: _68  and  _69
REMARK   31  A    between atoms: _69  and  _70
REMARK   32  A    between atoms: _70  and  _71
REMARK   33  A    between atoms: _80  and  _82
REMARK   34  A    between atoms: _82  and  _83
REMARK   35  A    between atoms: _82  and  _85
REMARK   36  A    between atoms: _88  and  _90
REMARK   37  A    between atoms: _90  and  _91
REMARK   38  A    between atoms: _90  and  _93
REMARK   39  A    between atoms: _93  and  _94
REMARK   40  A    between atoms: _94  and  _95
REMARK   41  A    between atoms: _97  and  _99
REMARK   42  A    between atoms: _99  and  _100
REMARK   43  A    between atoms: _99  and  _102
REMARK   44  A    between atoms: _102  and  _103
REMARK   45  A    between atoms: _106  and  _108
REMARK   46  A    between atoms: _108  and  _109
REMARK   47  A    between atoms: _108  and  _111
REMARK   48  A    between atoms: _111  and  _112
REMARK   49  A    between atoms: _117  and  _118
REMARK   50  A    between atoms: _120  and  _122
REMARK   51  A    between atoms: _122  and  _123
REMARK   52  A    between atoms: _126  and  _128
REMARK   53  A    between atoms: _128  and  _129
REMARK   54  A    between atoms: _128  and  _131
REMARK   55  A    between atoms: _131  and  _132
REMARK   56  A    between atoms: _132  and  _133
REMARK   57  A    between atoms: _135  and  _137
REMARK   58  A    between atoms: _137  and  _138
REMARK   59  A    between atoms: _137  and  _140
REMARK   60  A    between atoms: _140  and  _141
REMARK   61  A    between atoms: _141  and  _142
REMARK   62  A    between atoms: _142  and  _143
REMARK   63  A    between atoms: _143  and  _144
REMARK   64  A    between atoms: _148  and  _150
REMARK   65  A    between atoms: _150  and  _151
REMARK   66  A    between atoms: _150  and  _153
REMARK   67  A    between atoms: _153  and  _154
REMARK   68  A    between atoms: _157  and  _159
REMARK   69  A    between atoms: _159  and  _160
REMARK   70  A    between atoms: _159  and  _162
REMARK   71  A    between atoms: _162  and  _163
REMARK   72  A    between atoms: _166  and  _168
REMARK   73  A    between atoms: _168  and  _169
REMARK   74  A    between atoms: _168  and  _171
REMARK   75  A    between atoms: _171  and  _172
REMARK   76  A    between atoms: _175  and  _177
REMARK   77  A    between atoms: _177  and  _178
REMARK   78  A    between atoms: _177  and  _180
REMARK   79  A    between atoms: _180  and  _181
REMARK   80  A    between atoms: _181  and  _182
REMARK   81  A    between atoms: _182  and  _183
REMARK   82  A    between atoms: _183  and  _184
REMARK   83  A    between atoms: _188  and  _190
REMARK   84  A    between atoms: _190  and  _191
REMARK   85  A    between atoms: _190  and  _193
REMARK   86  A    between atoms: _196  and  _198
REMARK   87  A    between atoms: _198  and  _199
REMARK   88  A    between atoms: _198  and  _201
REMARK   89  A    between atoms: _201  and  _202
REMARK   90  A    between atoms: _205  and  _207
REMARK   91  A    between atoms: _207  and  _208
REMARK   92  A    between atoms: _207  and  _210
REMARK   93  A    between atoms: _210  and  _211
REMARK   94  A    between atoms: _211  and  _212
REMARK   95  A    between atoms: _217  and  _219
REMARK   96  A    between atoms: _219  and  _220
REMARK   97  A    between atoms: _219  and  _222
REMARK   98  A    between atoms: _222  and  _223
REMARK   99  A    between atoms: _228  and  _230
REMARK  100  A    between atoms: _230  and  _231
REMARK  101  A    between atoms: _230  and  _233
REMARK  102  A    between atoms: _233  and  _234
REMARK  103  A    between atoms: _237  and  _239
REMARK  104  A    between atoms: _239  and  _240
REMARK  105  A    between atoms: _239  and  _242
REMARK  106  A    between atoms: _242  and  _243
REMARK  107  A    between atoms: _243  and  _244
REMARK  108  A    between atoms: _247  and  _249
REMARK  109  A    between atoms: _249  and  _250
REMARK  110  A    between atoms: _249  and  _252
REMARK  111  A    between atoms: _252  and  _253
REMARK  112  A    between atoms: _256  and  _258
REMARK  113  A    between atoms: _258  and  _259
REMARK  114  A    between atoms: _258  and  _261
REMARK  115  A    between atoms: _264  and  _266
REMARK  116  A    between atoms: _266  and  _267
REMARK  117  A    between atoms: _266  and  _269
REMARK  118  A    between atoms: _269  and  _270
REMARK  119  A    between atoms: _270  and  _271
REMARK  120  A    between atoms: _271  and  _272
REMARK  121  A    between atoms: _272  and  _273
REMARK  122  A    between atoms: _277  and  _279
REMARK  123  A    between atoms: _279  and  _280
REMARK  124  A    between atoms: _279  and  _282
REMARK  125  A    between atoms: _282  and  _283
REMARK  126  A    between atoms: _286  and  _288
REMARK  127  A    between atoms: _288  and  _289
REMARK  128  A    between atoms: _288  and  _291
REMARK  129  A    between atoms: _291  and  _292
REMARK  130  A    between atoms: _292  and  _293
REMARK  131  A    between atoms: _296  and  _298
REMARK  132  A    between atoms: _298  and  _299
REMARK  133  A    between atoms: _298  and  _301
REMARK  134  A    between atoms: _301  and  _302
REMARK  135  A    between atoms: _302  and  _303
REMARK  136  A    between atoms: _305  and  _307
REMARK  137  A    between atoms: _307  and  _308
REMARK  138  A    between atoms: _307  and  _310
REMARK  139  A    between atoms: _313  and  _315
REMARK  140  A    between atoms: _315  and  _316
REMARK  141  A    between atoms: _315  and  _318
REMARK  142  A    between atoms: _318  and  _319
REMARK  143  A    between atoms: _319  and  _320
REMARK  144  A    between atoms: _322  and  _324
REMARK  145  A    between atoms: _324  and  _325
REMARK  146  A    between atoms: _324  and  _327
REMARK  147  A    between atoms: _327  and  _328
REMARK  148  A    between atoms: _328  and  _329
REMARK  149  A    between atoms: _332  and  _334
REMARK  150  A    between atoms: _334  and  _335
REMARK  151  A    between atoms: _334  and  _337
REMARK  152  A    between atoms: _337  and  _338
REMARK  153  A    between atoms: _343  and  _344
REMARK  154  A    between atoms: _346  and  _348
REMARK  155  A    between atoms: _348  and  _349
REMARK  156  A    between atoms: _348  and  _351
REMARK  157  A    between atoms: _355  and  _356
REMARK  158  A    between atoms: _361  and  _363
REMARK  159  A    between atoms: _363  and  _364
REMARK  160  A    between atoms: _366  and  _368
REMARK  161  A    between atoms: _368  and  _369
REMARK  162  A    between atoms: _371  and  _373
REMARK  163  A    between atoms: _373  and  _374
REMARK  164  A    between atoms: _373  and  _376
REMARK  165  A    between atoms: _376  and  _377
REMARK  166  A    between atoms: _377  and  _378
REMARK  167  A    between atoms: _381  and  _383
REMARK  168  A    between atoms: _383  and  _384
REMARK  169  A    between atoms: _383  and  _386
REMARK  170  A    between atoms: _386  and  _387
REMARK  171  A    between atoms: _387  and  _388
REMARK  172  A    between atoms: _390  and  _392
REMARK  173  A    between atoms: _392  and  _393
REMARK  174  A    between atoms: _392  and  _395
REMARK  175  A    between atoms: _395  and  _396
REMARK  176  A    between atoms: _402  and  _404
REMARK  177  A    between atoms: _404  and  _405
REMARK  178  A    between atoms: _404  and  _407
REMARK  179  A    between atoms: _407  and  _408
REMARK  180  A    between atoms: _410  and  _412
REMARK  181  A    between atoms: _412  and  _413
REMARK  182  A    between atoms: _412  and  _415
REMARK  183  A    between atoms: _415  and  _416
REMARK  184  A    between atoms: _419  and  _421
REMARK  185  A    between atoms: _421  and  _422
REMARK  186  A    between atoms: _421  and  _424
REMARK  187  A    between atoms: _424  and  _425
REMARK  188  A    between atoms: _425  and  _426
REMARK  189  A    between atoms: _426  and  _427
REMARK  190  A    between atoms: _436  and  _438
REMARK  191  A    between atoms: _438  and  _439
REMARK  192  A    between atoms: _438  and  _441
REMARK  193  A    between atoms: _441  and  _442
REMARK  194  A    between atoms: _447  and  _448
REMARK  195  A    between atoms: _450  and  _452
REMARK  196  A    between atoms: _452  and  _453
REMARK  197  A    between atoms: _452  and  _455
REMARK  198  A    between atoms: _455  and  _456
REMARK  199  A    between atoms: _459  and  _461
REMARK  200  A    between atoms: _461  and  _462
REMARK  201  A    between atoms: _461  and  _464
REMARK  202  A    between atoms: _464  and  _465
REMARK  203  A    between atoms: _468  and  _470
REMARK  204  A    between atoms: _470  and  _471
REMARK  205  A    between atoms: _470  and  _473
REMARK  206  A    between atoms: _473  and  _474
REMARK  207  A    between atoms: _474  and  _475
REMARK  208  A    between atoms: _475  and  _476
REMARK  209  A    between atoms: _476  and  _477
REMARK  210  A    between atoms: _482  and  _483
REMARK  211  A    between atoms: _488  and  _490
REMARK  212  A    between atoms: _490  and  _491
REMARK  213  A    between atoms: _490  and  _493
REMARK  214  A    between atoms: _493  and  _494
REMARK  215  A    between atoms: _494  and  _495
REMARK  216  A    between atoms: _498  and  _500
REMARK  217  A    between atoms: _500  and  _501
REMARK  218  A    between atoms: _500  and  _503
REMARK  219  A    between atoms: _503  and  _504
REMARK  220  A    between atoms: _509  and  _511
REMARK  221  A    between atoms: _511  and  _512
REMARK  222  A    between atoms: _511  and  _514
REMARK  223  A    between atoms: _514  and  _515
REMARK  224  A    between atoms: _518  and  _520
REMARK  225  A    between atoms: _520  and  _521
REMARK  226  A    between atoms: _520  and  _523
REMARK  227  A    between atoms: _523  and  _524
REMARK  228  A    between atoms: _527  and  _529
REMARK  229  A    between atoms: _529  and  _530
REMARK  230  A    between atoms: _529  and  _532
REMARK  231  A    between atoms: _532  and  _533
REMARK  232  A    between atoms: _536  and  _538
REMARK  233  A    between atoms: _538  and  _539
REMARK  234  A    between atoms: _538  and  _541
REMARK  235  A    between atoms: _541  and  _542
REMARK  236  A    between atoms: _542  and  _543
REMARK  237  A    between atoms: _548  and  _550
REMARK  238  A    between atoms: _550  and  _551
REMARK  239  A    between atoms: _550  and  _553
REMARK  240  A    between atoms: _556  and  _558
REMARK  241  A    between atoms: _558  and  _559
REMARK  242  A    between atoms: _558  and  _561
REMARK  243  A    between atoms: _561  and  _562
REMARK  244  A    between atoms: _565  and  _567
REMARK  245  A    between atoms: _567  and  _568
REMARK  246  A    between atoms: _567  and  _570
REMARK  247  A    between atoms: _570  and  _571
REMARK  248  A    between atoms: _574  and  _576
REMARK  249  A    between atoms: _576  and  _577
REMARK  250  A    between atoms: _576  and  _579
REMARK  251  A    between atoms: _579  and  _580
REMARK  252  A    between atoms: _586  and  _588
REMARK  253  A    between atoms: _588  and  _589
REMARK  254  A    between atoms: _591  and  _593
REMARK  255  A    between atoms: _593  and  _594
REMARK  256  A    between atoms: _593  and  _596
REMARK  257  A    between atoms: _596  and  _597
REMARK  258  A    between atoms: _603  and  _605
REMARK  259  A    between atoms: _605  and  _606
REMARK  260  A    between atoms: _605  and  _608
REMARK  261  A    between atoms: _610  and  _612
REMARK  262  A    between atoms: _612  and  _613
REMARK  263  A    between atoms: _615  and  _617
REMARK  264  A    between atoms: _617  and  _618
REMARK  265  A    between atoms: _617  and  _620
REMARK  266  A    between atoms: _620  and  _621
REMARK  267  A    between atoms: _625  and  _626
REMARK  268  A    between atoms: _631  and  _633
REMARK  269  A    between atoms: _633  and  _634
REMARK  270  A    between atoms: _633  and  _636
REMARK  271  A    between atoms: _636  and  _637
REMARK  272  A    between atoms: _637  and  _638
REMARK  273  A    between atoms: _641  and  _643
REMARK  274  A    between atoms: _643  and  _644
REMARK  275  A    between atoms: _643  and  _646
REMARK  276  A    between atoms: _646  and  _647
REMARK  277  A    between atoms: _652  and  _653
REMARK  278  A    between atoms: _655  and  _657
REMARK  279  A    between atoms: _657  and  _658
REMARK  280  A    between atoms: _657  and  _660
REMARK  281  A    between atoms: _663  and  _665
REMARK  282  A    between atoms: _665  and  _666
REMARK  283  A    between atoms: _665  and  _668
REMARK  284  A    between atoms: _668  and  _669
REMARK  285  A    between atoms: _672  and  _674
REMARK  286  A    between atoms: _674  and  _675
REMARK  287  A    between atoms: _674  and  _677
REMARK  288  A    between atoms: _677  and  _678
REMARK  289  A    between atoms: _678  and  _679
REMARK  290  A    between atoms: _682  and  _684
REMARK  291  A    between atoms: _684  and  _685
REMARK  292  A    between atoms: _684  and  _687
REMARK  293  A    between atoms: _687  and  _688
REMARK  294  A    between atoms: _688  and  _689
REMARK  295  A    between atoms: _691  and  _693
REMARK  296  A    between atoms: _693  and  _694
REMARK  297  A    between atoms: _696  and  _698
REMARK  298  A    between atoms: _698  and  _699
REMARK  299  A    between atoms: _698  and  _701
REMARK  300  A    between atoms: _701  and  _702
REMARK  301  A    between atoms: _707  and  _708
REMARK  302  A    between atoms: _711  and  _712
REMARK  303  A    between atoms: _718  and  _719
REMARK  304  A    between atoms: _724  and  _726
REMARK  305  A    between atoms: _726  and  _727
REMARK  306  A    between atoms: _726  and  _729
REMARK  307  A    between atoms: _729  and  _730
REMARK  308  A    between atoms: _736  and  _738
REMARK  309  A    between atoms: _738  and  _739
REMARK  310  A    between atoms: _738  and  _741
REMARK  311  A    between atoms: _741  and  _742
REMARK  312  A    between atoms: _748  and  _750
REMARK  313  A    between atoms: _750  and  _751
REMARK  314  A    between atoms: _750  and  _753
REMARK  315  A    between atoms: _753  and  _754
REMARK  316  A    between atoms: _757  and  _759
REMARK  317  A    between atoms: _759  and  _760
REMARK  318  A    between atoms: _759  and  _762
REMARK  319  A    between atoms: _762  and  _763
REMARK  320  A    between atoms: _768  and  _770
REMARK  321  A    between atoms: _770  and  _771
REMARK  322  A    between atoms: _770  and  _773
REMARK  323  A    between atoms: _773  and  _774
REMARK  324  A    between atoms: _780  and  _782
REMARK  325  A    between atoms: _782  and  _783
REMARK  326  A    between atoms: _782  and  _785
REMARK  327  A    between atoms: _785  and  _786
REMARK  328  A    between atoms: _789  and  _791
REMARK  329  A    between atoms: _791  and  _792
REMARK  330  A    between atoms: _791  and  _794
REMARK  331  A    between atoms: _794  and  _795
REMARK  332  A    between atoms: _800  and  _801
REMARK                            x       y       z     vdW  Elec       q    Type
REMARK                         _______ _______ _______ _____ _____    ______ ____
ROOT
ATOM      1  C   PRO A   3     -19.420  -7.846  21.733  0.00  0.00    +0.244 C 
ATOM      2  O   PRO A   3     -20.323  -7.881  22.565  0.00  0.00    -0.273 OA
ATOM      3  N   PRO A   4     -18.237  -8.458  21.930  0.00  0.00    -0.272 N 
ATOM      4  CA  PRO A   4     -17.941  -9.228  23.153  0.00  0.00    +0.152 C 
ATOM      5  CB  PRO A   4     -16.531  -9.783  22.890  0.00  0.00    +0.031 C 
ATOM      6  CG  PRO A   4     -15.942  -8.901  21.834  0.00  0.00    +0.024 C 
ATOM      7  CD  PRO A   4     -17.085  -8.412  21.003  0.00  0.00    +0.094 C 
ENDROOT
BRANCH   1  10
ATOM      8  C   TYR A   2     -21.780  -7.983  19.596  0.00  0.00    +0.244 C 
ATOM      9  N   PRO A   3     -21.073  -6.944  20.074  0.00  0.00    -0.272 N 
ATOM     10  CA  PRO A   3     -19.644  -7.109  20.387  0.00  0.00    +0.152 C 
ATOM     11  CB  PRO A   3     -19.113  -5.661  20.398  0.00  0.00    +0.031 C 
ATOM     12  CG  PRO A   3     -20.311  -4.821  20.745  0.00  0.00    +0.024 C 
ATOM     13  CD  PRO A   3     -21.561  -5.580  20.367  0.00  0.00    +0.094 C 
ATOM     14  O   TYR A   2     -21.288  -9.092  19.416  0.00  0.00    -0.273 OA
BRANCH   8  15
ATOM     15  CA  TYR A   2     -23.269  -7.749  19.271  0.00  0.00    +0.153 C 
BRANCH  15  17
ATOM     16  C   GLY A   1     -24.571  -8.569  17.384  0.00  0.00    +0.240 C 
ATOM     17  N   TYR A   2     -23.659  -8.781  18.327  0.00  0.00    -0.297 N 
ATOM     18  H   TYR A   2     -23.210  -9.717  18.391  0.00  0.00    +0.150 HD
ATOM     19  O   GLY A   1     -25.208  -7.514  17.302  0.00  0.00    -0.274 OA
BRANCH  16  20
ATOM     20  CA  GLY A   1     -24.809  -9.708  16.401  0.00  0.00    +0.169 C 
BRANCH  20  21
ATOM     21  N   GLY A   1     -23.915 -10.838  16.609  0.00  0.00    -0.236 NA
ATOM     22  H   GLY A   1     -22.976 -10.826  16.162  0.00  0.00    +0.142 HD
ENDBRANCH  20  21
ENDBRANCH  16  20
ENDBRANCH  15  17
BRANCH  15  23
ATOM     23  CB  TYR A   2     -24.131  -7.812  20.537  0.00  0.00    +0.055 C 
BRANCH  23  24
ATOM     24  CG  TYR A   2     -24.239  -9.195  21.176  0.00  0.00    -0.020 A 
ATOM     25  CD2 TYR A   2     -23.278  -9.635  22.092  0.00  0.00    -0.001 A 
ATOM     26  CE2 TYR A   2     -23.359 -10.892  22.668  0.00  0.00    +0.036 A 
ATOM     27  CZ  TYR A   2     -24.419 -11.727  22.343  0.00  0.00    +0.134 A 
ATOM     28  CE1 TYR A   2     -25.402 -11.318  21.460  0.00  0.00    +0.036 A 
ATOM     29  CD1 TYR A   2     -25.314 -10.044  20.881  0.00  0.00    -0.001 A 
BRANCH  27  30
ATOM     30  OH  TYR A   2     -24.504 -12.951  22.938  0.00  0.00    -0.506 OA
ATOM     31  HH  TYR A   2     -24.510 -13.655  22.242  0.00  0.00    +0.292 HD
ENDBRANCH  27  30
ENDBRANCH  23  24
ENDBRANCH  15  23
ENDBRANCH   8  15
ENDBRANCH   1  10
BRANCH   4  32
ATOM     32  C   PRO A   4     -17.915  -8.375  24.420  0.00  0.00    +0.241 C 
ATOM     33  O   PRO A   4     -18.249  -8.866  25.508  0.00  0.00    -0.273 OA
ATOM     34  N   PHE A   5     -17.500  -7.116  24.279  0.00  0.00    -0.297 N 
ATOM     35  H   PHE A   5     -17.254  -6.768  23.331  0.00  0.00    +0.150 HD
BRANCH  34  36
ATOM     36  CA  PHE A   5     -17.382  -6.213  25.420  0.00  0.00    +0.153 C 
BRANCH  36  37
ATOM     37  C   PHE A   5     -18.250  -4.993  25.188  0.00  0.00    +0.241 C 
ATOM     38  N   PHE A   6     -19.293  -4.876  25.985  0.00  0.00    -0.298 N 
ATOM     39  H   PHE A   6     -19.476  -5.619  26.689  0.00  0.00    +0.150 HD
ATOM     40  O   PHE A   5     -18.006  -4.205  24.284  0.00  0.00    -0.273 OA
BRANCH  38  41
ATOM     41  CA  PHE A   6     -20.197  -3.737  25.909  0.00  0.00    +0.141 C 
BRANCH  41  42
ATOM     42  C   PHE A   6     -20.723  -3.423  27.289  0.00  0.00    +0.227 C 
ATOM     43  O   PHE A   6     -20.800  -4.304  28.161  0.00  0.00    -0.286 OA
ENDBRANCH  41  42
BRANCH  41  44
ATOM     44  CB  PHE A   6     -21.342  -3.947  24.895  0.00  0.00    +0.054 C 
BRANCH  44  45
ATOM     45  CG  PHE A   6     -22.295  -5.054  25.250  0.00  0.00    -0.020 A 
ATOM     46  CD2 PHE A   6     -23.417  -4.804  26.058  0.00  0.00    -0.004 A 
ATOM     47  CE2 PHE A   6     -24.319  -5.842  26.395  0.00  0.00    -0.000 A 
ATOM     48  CZ  PHE A   6     -24.098  -7.142  25.908  0.00  0.00    -0.000 A 
ATOM     49  CE1 PHE A   6     -22.993  -7.393  25.091  0.00  0.00    -0.000 A 
ATOM     50  CD1 PHE A   6     -22.099  -6.341  24.759  0.00  0.00    -0.004 A 
ENDBRANCH  44  45
ENDBRANCH  41  44
ENDBRANCH  38  41
ENDBRANCH  36  37
BRANCH  36  51
ATOM     51  CB  PHE A   5     -15.910  -5.811  25.655  0.00  0.00    +0.055 C 
BRANCH  51  52
ATOM     52  CG  PHE A   5     -14.948  -6.950  25.480  0.00  0.00    -0.020 A 
ATOM     53  CD2 PHE A   5     -14.839  -7.939  26.455  0.00  0.00    -0.004 A 
ATOM     54  CE2 PHE A   5     -13.966  -9.010  26.293  0.00  0.00    -0.000 A 
ATOM     55  CZ  PHE A   5     -13.191  -9.103  25.152  0.00  0.00    -0.000 A 
ATOM     56  CE1 PHE A   5     -13.301  -8.140  24.152  0.00  0.00    -0.000 A 
ATOM     57  CD1 PHE A   5     -14.182  -7.056  24.322  0.00  0.00    -0.004 A 
ENDBRANCH  51  52
ENDBRANCH  36  51
ENDBRANCH  34  36
ENDBRANCH   4  32
TORSDOF 17
REMARK  Name = ../refined-set-2016/3agl/3agl_pocket.pdb
REMARK  332 active torsions:
REMARK  status: ('A' for Active; 'I' for Inactive)
REMARK    1  A    between atoms: _1  and  _3
REMARK    2  A    between atoms: _3  and  _4
REMARK    3  A    between atoms: _3  and  _6
REMARK    4  A    between atoms: _6  and  _7
REMARK    5  A    between atoms: _10  and  _12
REMARK    6  A    between atoms: _12  and  _13
REMARK    7  A    between atoms: _12  and  _15
REMARK    8  A    between atoms: _15  and  _16
REMARK    9  A    between atoms: _19  and  _21
REMARK   10  A    between atoms: _21  and  _22
REMARK   11  A    between atoms: _24  and  _26
REMARK   12  A    between atoms: _26  and  _27
REMARK   13  A    between atoms: _26  and  _29
REMARK   14  A    between atoms: _29  and  _30
REMARK   15  A    between atoms: _33  and  _35
REMARK   16  A    between atoms: _35  and  _36
REMARK   17  A    between atoms: _38  and  _40
REMARK   18  A    between atoms: _40  and  _41
REMARK   19  A    between atoms: _40  and  _43
REMARK   20  A    between atoms: _43  and  _44
REMARK   21  A    between atoms: _46  and  _48
REMARK   22  A    between atoms: _48  and  _49
REMARK   23  A    between atoms: _48  and  _51
REMARK   24  A    between atoms: _51  and  _52
REMARK   25  A    between atoms: _58  and  _60
REMARK   26  A    between atoms: _60  and  _61
REMARK   27  A    between atoms: _63  and  _65
REMARK   28  A    between atoms: _65  and  _66
REMARK   29  A    between atoms: _65  and  _68
REMARK   30  A    between atoms: _68  and  _69
REMARK   31  A    between atoms: _69  and  _70
REMARK   32  A    between atoms: _70  and  _71
REMARK   33  A    between atoms: _80  and  _82
REMARK   34  A    between atoms: _82  and  _83
REMARK   35  A    between atoms: _82  and  _85
REMARK   36  A    between atoms: _88  and  _90
REMARK   37  A    between atoms: _90  and  _91
REMARK   38  A    between atoms: _90  and  _93
REMARK   39  A    between atoms: _93  and  _94
REMARK   40  A    between atoms: _94  and  _95
REMARK   41  A    between atoms: _97  and  _99
REMARK   42  A    between atoms: _99  and  _100
REMARK   43  A    between atoms: _99  and  _102
REMARK   44  A    between atoms: _102  and  _103
REMARK   45  A    between atoms: _106  and  _108
REMARK   46  A    between atoms: _108  and  _109
REMARK   47  A    between atoms: _108  and  _111
REMARK   48  A    between atoms: _111  and  _112
REMARK   49  A    between atoms: _117  and  _118
REMARK   50  A    between atoms: _120  and  _122
REMARK   51  A    between atoms: _122  and  _123
REMARK   52  A    between atoms: _126  and  _128
REMARK   53  A    between atoms: _128  and  _129
REMARK   54  A    between atoms: _128  and  _131
REMARK   55  A    between atoms: _131  and  _132
REMARK   56  A    between atoms: _132  and  _133
REMARK   57  A    between atoms: _135  and  _137
REMARK   58  A    between atoms: _137  and  _138
REMARK   59  A    between atoms: _137  and  _140
REMARK   60  A    between atoms: _140  and  _141
REMARK   61  A    between atoms: _141  and  _142
REMARK   62  A    between atoms: _142  and  _143
REMARK   63  A    between atoms: _143  and  _144
REMARK   64  A    between atoms: _148  and  _150
REMARK   65  A    between atoms: _150  and  _151
REMARK   66  A    between atoms: _150  and  _153
REMARK   67  A    between atoms: _153  and  _154
REMARK   68  A    between atoms: _157  and  _159
REMARK   69  A    between atoms: _159  and  _160
REMARK   70  A    between atoms: _159  and  _162
REMARK   71  A    between atoms: _162  and  _163
REMARK   72  A    between atoms: _166  and  _168
REMARK   73  A    between atoms: _168  and  _169
REMARK   74  A    between atoms: _168  and  _171
REMARK   75  A    between atoms: _171  and  _172
REMARK   76  A    between atoms: _175  and  _177
REMARK   77  A    between atoms: _177  and  _178
REMARK   78  A    between atoms: _177  and  _180
REMARK   79  A    between atoms: _180  and  _181
REMARK   80  A    between atoms: _181  and  _182
REMARK   81  A    between atoms: _182  and  _183
REMARK   82  A    between atoms: _183  and  _184
REMARK   83  A    between atoms: _188  and  _190
REMARK   84  A    between atoms: _190  and  _191
REMARK   85  A    between atoms: _190  and  _193
REMARK   86  A    between atoms: _196  and  _198
REMARK   87  A    between atoms: _198  and  _199
REMARK   88  A    between atoms: _198  and  _201
REMARK   89  A    between atoms: _201  and  _202
REMARK   90  A    between atoms: _205  and  _207
REMARK   91  A    between atoms: _207  and  _208
REMARK   92  A    between atoms: _207  and  _210
REMARK   93  A    between atoms: _210  and  _211
REMARK   94  A    between atoms: _211  and  _212
REMARK   95  A    between atoms: _217  and  _219
REMARK   96  A    between atoms: _219  and  _220
REMARK   97  A    between atoms: _219  and  _222
REMARK   98  A    between atoms: _222  and  _223
REMARK   99  A    between atoms: _228  and  _230
REMARK  100  A    between atoms: _230  and  _231
REMARK  101  A    between atoms: _230  and  _233
REMARK  102  A    between atoms: _233  and  _234
REMARK  103  A    between atoms: _237  and  _239
REMARK  104  A    between atoms: _239  and  _240
REMARK  105  A    between atoms: _239  and  _242
REMARK  106  A    between atoms: _242  and  _243
REMARK  107  A    between atoms: _243  and  _244
REMARK  108  A    between atoms: _247  and  _249
REMARK  109  A    between atoms: _249  and  _250
REMARK  110  A    between atoms: _249  and  _252
REMARK  111  A    between atoms: _252  and  _253
REMARK  112  A    between atoms: _256  and  _258
REMARK  113  A    between atoms: _258  and  _259
REMARK  114  A    between atoms: _258  and  _261
REMARK  115  A    between atoms: _264  and  _266
REMARK  116  A    between atoms: _266  and  _267
REMARK  117  A    between atoms: _266  and  _269
REMARK  118  A    between atoms: _269  and  _270
REMARK  119  A    between atoms: _270  and  _271
REMARK  120  A    between atoms: _271  and  _272
REMARK  121  A    between atoms: _272  and  _273
REMARK  122  A    between atoms: _277  and  _279
REMARK  123  A    between atoms: _279  and  _280
REMARK  124  A    between atoms: _279  and  _282
REMARK  125  A    between atoms: _282  and  _283
REMARK  126  A    between atoms: _286  and  _288
REMARK  127  A    between atoms: _288  and  _289
REMARK  128  A    between atoms: _288  and  _291
REMARK  129  A    between atoms: _291  and  _292
REMARK  130  A    between atoms: _292  and  _293
REMARK  131  A    between atoms: _296  and  _298
REMARK  132  A    between atoms: _298  and  _299
REMARK  133  A    between atoms: _298  and  _301
REMARK  134  A    between atoms: _301  and  _302
REMARK  135  A    between atoms: _302  and  _303
REMARK  136  A    between atoms: _305  and  _307
REMARK  137  A    between atoms: _307  and  _308
REMARK  138  A    between atoms: _307  and  _310
REMARK  139  A    between atoms: _313  and  _315
REMARK  140  A    between atoms: _315  and  _316
REMARK  141  A    between atoms: _315  and  _318
REMARK  142  A    between atoms: _318  and  _319
REMARK  143  A    between atoms: _319  and  _320
REMARK  144  A    between atoms: _322  and  _324
REMARK  145  A    between atoms: _324  and  _325
REMARK  146  A    between atoms: _324  and  _327
REMARK  147  A    between atoms: _327  and  _328
REMARK  148  A    between atoms: _328  and  _329
REMARK  149  A    between atoms: _332  and  _334
REMARK  150  A    between atoms: _334  and  _335
REMARK  151  A    between atoms: _334  and  _337
REMARK  152  A    between atoms: _337  and  _338
REMARK  153  A    between atoms: _343  and  _344
REMARK  154  A    between atoms: _346  and  _348
REMARK  155  A    between atoms: _348  and  _349
REMARK  156  A    between atoms: _348  and  _351
REMARK  157  A    between atoms: _355  and  _356
REMARK  158  A    between atoms: _361  and  _363
REMARK  159  A    between atoms: _363  and  _364
REMARK  160  A    between atoms: _366  and  _368
REMARK  161  A    between atoms: _368  and  _369
REMARK  162  A    between atoms: _371  and  _373
REMARK  163  A    between atoms: _373  and  _374
REMARK  164  A    between atoms: _373  and  _376
REMARK  165  A    between atoms: _376  and  _377
REMARK  166  A    between atoms: _377  and  _378
REMARK  167  A    between atoms: _381  and  _383
REMARK  168  A    between atoms: _383  and  _384
REMARK  169  A    between atoms: _383  and  _386
REMARK  170  A    between atoms: _386  and  _387
REMARK  171  A    between atoms: _387  and  _388
REMARK  172  A    between atoms: _390  and  _392
REMARK  173  A    between atoms: _392  and  _393
REMARK  174  A    between atoms: _392  and  _395
REMARK  175  A    between atoms: _395  and  _396
REMARK  176  A    between atoms: _402  and  _404
REMARK  177  A    between atoms: _404  and  _405
REMARK  178  A    between atoms: _404  and  _407
REMARK  179  A    between atoms: _407  and  _408
REMARK  180  A    between atoms: _410  and  _412
REMARK  181  A    between atoms: _412  and  _413
REMARK  182  A    between atoms: _412  and  _415
REMARK  183  A    between atoms: _415  and  _416
REMARK  184  A    between atoms: _419  and  _421
REMARK  185  A    between atoms: _421  and  _422
REMARK  186  A    between atoms: _421  and  _424
REMARK  187  A    between atoms: _424  and  _425
REMARK  188  A    between atoms: _425  and  _426
REMARK  189  A    between atoms: _426  and  _427
REMARK  190  A    between atoms: _436  and  _438
REMARK  191  A    between atoms: _438  and  _439
REMARK  192  A    between atoms: _438  and  _441
REMARK  193  A    between atoms: _441  and  _442
REMARK  194  A    between atoms: _447  and  _448
REMARK  195  A    between atoms: _450  and  _452
REMARK  196  A    between atoms: _452  and  _453
REMARK  197  A    between atoms: _452  and  _455
REMARK  198  A    between atoms: _455  and  _456
REMARK  199  A    between atoms: _459  and  _461
REMARK  200  A    between atoms: _461  and  _462
REMARK  201  A    between atoms: _461  and  _464
REMARK  202  A    between atoms: _464  and  _465
REMARK  203  A    between atoms: _468  and  _470
REMARK  204  A    between atoms: _470  and  _471
REMARK  205  A    between atoms: _470  and  _473
REMARK  206  A    between atoms: _473  and  _474
REMARK  207  A    between atoms: _474  and  _475
REMARK  208  A    between atoms: _475  and  _476
REMARK  209  A    between atoms: _476  and  _477
REMARK  210  A    between atoms: _482  and  _483
REMARK  211  A    between atoms: _488  and  _490
REMARK  212  A    between atoms: _490  and  _491
REMARK  213  A    between atoms: _490  and  _493
REMARK  214  A    between atoms: _493  and  _494
REMARK  215  A    between atoms: _494  and  _495
REMARK  216  A    between atoms: _498  and  _500
REMARK  217  A    between atoms: _500  and  _501
REMARK  218  A    between atoms: _500  and  _503
REMARK  219  A    between atoms: _503  and  _504
REMARK  220  A    between atoms: _509  and  _511
REMARK  221  A    between atoms: _511  and  _512
REMARK  222  A    between atoms: _511  and  _514
REMARK  223  A    between atoms: _514  and  _515
REMARK  224  A    between atoms: _518  and  _520
REMARK  225  A    between atoms: _520  and  _521
REMARK  226  A    between atoms: _520  and  _523
REMARK  227  A    between atoms: _523  and  _524
REMARK  228  A    between atoms: _527  and  _529
REMARK  229  A    between atoms: _529  and  _530
REMARK  230  A    between atoms: _529  and  _532
REMARK  231  A    between atoms: _532  and  _533
REMARK  232  A    between atoms: _536  and  _538
REMARK  233  A    between atoms: _538  and  _539
REMARK  234  A    between atoms: _538  and  _541
REMARK  235  A    between atoms: _541  and  _542
REMARK  236  A    between atoms: _542  and  _543
REMARK  237  A    between atoms: _548  and  _550
REMARK  238  A    between atoms: _550  and  _551
REMARK  239  A    between atoms: _550  and  _553
REMARK  240  A    between atoms: _556  and  _558
REMARK  241  A    between atoms: _558  and  _559
REMARK  242  A    between atoms: _558  and  _561
REMARK  243  A    between atoms: _561  and  _562
REMARK  244  A    between atoms: _565  and  _567
REMARK  245  A    between atoms: _567  and  _568
REMARK  246  A    between atoms: _567  and  _570
REMARK  247  A    between atoms: _570  and  _571
REMARK  248  A    between atoms: _574  and  _576
REMARK  249  A    between atoms: _576  and  _577
REMARK  250  A    between atoms: _576  and  _579
REMARK  251  A    between atoms: _579  and  _580
REMARK  252  A    between atoms: _586  and  _588
REMARK  253  A    between atoms: _588  and  _589
REMARK  254  A    between atoms: _591  and  _593
REMARK  255  A    between atoms: _593  and  _594
REMARK  256  A    between atoms: _593  and  _596
REMARK  257  A    between atoms: _596  and  _597
REMARK  258  A    between atoms: _603  and  _605
REMARK  259  A    between atoms: _605  and  _606
REMARK  260  A    between atoms: _605  and  _608
REMARK  261  A    between atoms: _610  and  _612
REMARK  262  A    between atoms: _612  and  _613
REMARK  263  A    between atoms: _615  and  _617
REMARK  264  A    between atoms: _617  and  _618
REMARK  265  A    between atoms: _617  and  _620
REMARK  266  A    between atoms: _620  and  _621
REMARK  267  A    between atoms: _625  and  _626
REMARK  268  A    between atoms: _631  and  _633
REMARK  269  A    between atoms: _633  and  _634
REMARK  270  A    between atoms: _633  and  _636
REMARK  271  A    between atoms: _636  and  _637
REMARK  272  A    between atoms: _637  and  _638
REMARK  273  A    between atoms: _641  and  _643
REMARK  274  A    between atoms: _643  and  _644
REMARK  275  A    between atoms: _643  and  _646
REMARK  276  A    between atoms: _646  and  _647
REMARK  277  A    between atoms: _652  and  _653
REMARK  278  A    between atoms: _655  and  _657
REMARK  279  A    between atoms: _657  and  _658
REMARK  280  A    between atoms: _657  and  _660
REMARK  281  A    between atoms: _663  and  _665
REMARK  282  A    between atoms: _665  and  _666
REMARK  283  A    between atoms: _665  and  _668
REMARK  284  A    between atoms: _668  and  _669
REMARK  285  A    between atoms: _672  and  _674
REMARK  286  A    between atoms: _674  and  _675
REMARK  287  A    between atoms: _674  and  _677
REMARK  288  A    between atoms: _677  and  _678
REMARK  289  A    between atoms: _678  and  _679
REMARK  290  A    between atoms: _682  and  _684
REMARK  291  A    between atoms: _684  and  _685
REMARK  292  A    between atoms: _684  and  _687
REMARK  293  A    between atoms: _687  and  _688
REMARK  294  A    between atoms: _688  and  _689
REMARK  295  A    between atoms: _691  and  _693
REMARK  296  A    between atoms: _693  and  _694
REMARK  297  A    between atoms: _696  and  _698
REMARK  298  A    between atoms: _698  and  _699
REMARK  299  A    between atoms: _698  and  _701
REMARK  300  A    between atoms: _701  and  _702
REMARK  301  A    between atoms: _707  and  _708
REMARK  302  A    between atoms: _711  and  _712
REMARK  303  A    between atoms: _718  and  _719
REMARK  304  A    between atoms: _724  and  _726
REMARK  305  A    between atoms: _726  and  _727
REMARK  306  A    between atoms: _726  and  _729
REMARK  307  A    between atoms: _729  and  _730
REMARK  308  A    between atoms: _736  and  _738
REMARK  309  A    between atoms: _738  and  _739
REMARK  310  A    between atoms: _738  and  _741
REMARK  311  A    between atoms: _741  and  _742
REMARK  312  A    between atoms: _748  and  _750
REMARK  313  A    between atoms: _750  and  _751
REMARK  314  A    between atoms: _750  and  _753
REMARK  315  A    between atoms: _753  and  _754
REMARK  316  A    between atoms: _757  and  _759
REMARK  317  A    between atoms: _759  and  _760
REMARK  318  A    between atoms: _759  and  _762
REMARK  319  A    between atoms: _762  and  _763
REMARK  320  A    between atoms: _768  and  _770
REMARK  321  A    between atoms: _770  and  _771
REMARK  322  A    between atoms: _770  and  _773
REMARK  323  A    between atoms: _773  and  _774
REMARK  324  A    between atoms: _780  and  _782
REMARK  325  A    between atoms: _782  and  _783
REMARK  326  A    between atoms: _782  and  _785
REMARK  327  A    between atoms: _785  and  _786
REMARK  328  A    between atoms: _789  and  _791
REMARK  329  A    between atoms: _791  and  _792
REMARK  330  A    between atoms: _791  and  _794
REMARK  331  A    between atoms: _794  and  _795
REMARK  332  A    between atoms: _800  and  _801
REMARK                            x       y       z     vdW  Elec       q    Type
REMARK                         _______ _______ _______ _____ _____    ______ ____
ROOT
ATOM      1  CA  ILE A   1     -16.252  -1.447  28.527  0.00  0.00    +0.133 C 
ENDROOT
BRANCH   1   2
ATOM      2  N   ILE A   1     -16.707  -0.658  29.682  0.00  0.00    -0.239 NA
ATOM      3  H   ILE A   1     -17.044   0.314  29.527  0.00  0.00    +0.142 HD
ENDBRANCH   1   2
BRANCH   1   4
ATOM      4  C   ILE A   1     -14.754  -1.810  28.661  0.00  0.00    +0.224 C 
ATOM      5  O   ILE A   1     -14.346  -2.930  28.366  0.00  0.00    -0.287 OA
ENDBRANCH   1   4
BRANCH   1   6
ATOM      6  CB  ILE A   1     -16.496  -0.705  27.159  0.00  0.00    +0.023 C 
ATOM      7  CG2 ILE A   1     -16.019  -1.559  25.965  0.00  0.00    +0.002 C 
BRANCH   6   8
ATOM      8  CG1 ILE A   1     -17.974  -0.295  26.982  0.00  0.00    +0.002 C 
ATOM      9  CD1 ILE A   1     -18.271   0.444  25.656  0.00  0.00    +0.000 C 
ENDBRANCH   6   8
ENDBRANCH   1   6
TORSDOF 4
REMARK  Name = ../refined-set-2016/3agl/3agl_pocket.pdb
REMARK  332 active torsions:
REMARK  status: ('A' for Active; 'I' for Inactive)
REMARK    1  A    between atoms: _1  and  _3
REMARK    2  A    between atoms: _3  and  _4
REMARK    3  A    between atoms: _3  and  _6
REMARK    4  A    between atoms: _6  and  _7
REMARK    5  A    between atoms: _10  and  _12
REMARK    6  A    between atoms: _12  and  _13
REMARK    7  A    between atoms: _12  and  _15
REMARK    8  A    between atoms: _15  and  _16
REMARK    9  A    between atoms: _19  and  _21
REMARK   10  A    between atoms: _21  and  _22
REMARK   11  A    between atoms: _24  and  _26
REMARK   12  A    between atoms: _26  and  _27
REMARK   13  A    between atoms: _26  and  _29
REMARK   14  A    between atoms: _29  and  _30
REMARK   15  A    between atoms: _33  and  _35
REMARK   16  A    between atoms: _35  and  _36
REMARK   17  A    between atoms: _38  and  _40
REMARK   18  A    between atoms: _40  and  _41
REMARK   19  A    between atoms: _40  and  _43
REMARK   20  A    between atoms: _43  and  _44
REMARK   21  A    between atoms: _46  and  _48
REMARK   22  A    between atoms: _48  and  _49
REMARK   23  A    between atoms: _48  and  _51
REMARK   24  A    between atoms: _51  and  _52
REMARK   25  A    between atoms: _58  and  _60
REMARK   26  A    between atoms: _60  and  _61
REMARK   27  A    between atoms: _63  and  _65
REMARK   28  A    between atoms: _65  and  _66
REMARK   29  A    between atoms: _65  and  _68
REMARK   30  A    between atoms: _68  and  _69
REMARK   31  A    between atoms: _69  and  _70
REMARK   32  A    between atoms: _70  and  _71
REMARK   33  A    between atoms: _80  and  _82
REMARK   34  A    between atoms: _82  and  _83
REMARK   35  A    between atoms: _82  and  _85
REMARK   36  A    between atoms: _88  and  _90
REMARK   37  A    between atoms: _90  and  _91
REMARK   38  A    between atoms: _90  and  _93
REMARK   39  A    between atoms: _93  and  _94
REMARK   40  A    between atoms: _94  and  _95
REMARK   41  A    between atoms: _97  and  _99
REMARK   42  A    between atoms: _99  and  _100
REMARK   43  A    between atoms: _99  and  _102
REMARK   44  A    between atoms: _102  and  _103
REMARK   45  A    between atoms: _106  and  _108
REMARK   46  A    between atoms: _108  and  _109
REMARK   47  A    between atoms: _108  and  _111
REMARK   48  A    between atoms: _111  and  _112
REMARK   49  A    between atoms: _117  and  _118
REMARK   50  A    between atoms: _120  and  _122
REMARK   51  A    between atoms: _122  and  _123
REMARK   52  A    between atoms: _126  and  _128
REMARK   53  A    between atoms: _128  and  _129
REMARK   54  A    between atoms: _128  and  _131
REMARK   55  A    between atoms: _131  and  _132
REMARK   56  A    between atoms: _132  and  _133
REMARK   57  A    between atoms: _135  and  _137
REMARK   58  A    between atoms: _137  and  _138
REMARK   59  A    between atoms: _137  and  _140
REMARK   60  A    between atoms: _140  and  _141
REMARK   61  A    between atoms: _141  and  _142
REMARK   62  A    between atoms: _142  and  _143
REMARK   63  A    between atoms: _143  and  _144
REMARK   64  A    between atoms: _148  and  _150
REMARK   65  A    between atoms: _150  and  _151
REMARK   66  A    between atoms: _150  and  _153
REMARK   67  A    between atoms: _153  and  _154
REMARK   68  A    between atoms: _157  and  _159
REMARK   69  A    between atoms: _159  and  _160
REMARK   70  A    between atoms: _159  and  _162
REMARK   71  A    between atoms: _162  and  _163
REMARK   72  A    between atoms: _166  and  _168
REMARK   73  A    between atoms: _168  and  _169
REMARK   74  A    between atoms: _168  and  _171
REMARK   75  A    between atoms: _171  and  _172
REMARK   76  A    between atoms: _175  and  _177
REMARK   77  A    between atoms: _177  and  _178
REMARK   78  A    between atoms: _177  and  _180
REMARK   79  A    between atoms: _180  and  _181
REMARK   80  A    between atoms: _181  and  _182
REMARK   81  A    between atoms: _182  and  _183
REMARK   82  A    between atoms: _183  and  _184
REMARK   83  A    between atoms: _188  and  _190
REMARK   84  A    between atoms: _190  and  _191
REMARK   85  A    between atoms: _190  and  _193
REMARK   86  A    between atoms: _196  and  _198
REMARK   87  A    between atoms: _198  and  _199
REMARK   88  A    between atoms: _198  and  _201
REMARK   89  A    between atoms: _201  and  _202
REMARK   90  A    between atoms: _205  and  _207
REMARK   91  A    between atoms: _207  and  _208
REMARK   92  A    between atoms: _207  and  _210
REMARK   93  A    between atoms: _210  and  _211
REMARK   94  A    between atoms: _211  and  _212
REMARK   95  A    between atoms: _217  and  _219
REMARK   96  A    between atoms: _219  and  _220
REMARK   97  A    between atoms: _219  and  _222
REMARK   98  A    between atoms: _222  and  _223
REMARK   99  A    between atoms: _228  and  _230
REMARK  100  A    between atoms: _230  and  _231
REMARK  101  A    between atoms: _230  and  _233
REMARK  102  A    between atoms: _233  and  _234
REMARK  103  A    between atoms: _237  and  _239
REMARK  104  A    between atoms: _239  and  _240
REMARK  105  A    between atoms: _239  and  _242
REMARK  106  A    between atoms: _242  and  _243
REMARK  107  A    between atoms: _243  and  _244
REMARK  108  A    between atoms: _247  and  _249
REMARK  109  A    between atoms: _249  and  _250
REMARK  110  A    between atoms: _249  and  _252
REMARK  111  A    between atoms: _252  and  _253
REMARK  112  A    between atoms: _256  and  _258
REMARK  113  A    between atoms: _258  and  _259
REMARK  114  A    between atoms: _258  and  _261
REMARK  115  A    between atoms: _264  and  _266
REMARK  116  A    between atoms: _266  and  _267
REMARK  117  A    between atoms: _266  and  _269
REMARK  118  A    between atoms: _269  and  _270
REMARK  119  A    between atoms: _270  and  _271
REMARK  120  A    between atoms: _271  and  _272
REMARK  121  A    between atoms: _272  and  _273
REMARK  122  A    between atoms: _277  and  _279
REMARK  123  A    between atoms: _279  and  _280
REMARK  124  A    between atoms: _279  and  _282
REMARK  125  A    between atoms: _282  and  _283
REMARK  126  A    between atoms: _286  and  _288
REMARK  127  A    between atoms: _288  and  _289
REMARK  128  A    between atoms: _288  and  _291
REMARK  129  A    between atoms: _291  and  _292
REMARK  130  A    between atoms: _292  and  _293
REMARK  131  A    between atoms: _296  and  _298
REMARK  132  A    between atoms: _298  and  _299
REMARK  133  A    between atoms: _298  and  _301
REMARK  134  A    between atoms: _301  and  _302
REMARK  135  A    between atoms: _302  and  _303
REMARK  136  A    between atoms: _305  and  _307
REMARK  137  A    between atoms: _307  and  _308
REMARK  138  A    between atoms: _307  and  _310
REMARK  139  A    between atoms: _313  and  _315
REMARK  140  A    between atoms: _315  and  _316
REMARK  141  A    between atoms: _315  and  _318
REMARK  142  A    between atoms: _318  and  _319
REMARK  143  A    between atoms: _319  and  _320
REMARK  144  A    between atoms: _322  and  _324
REMARK  145  A    between atoms: _324  and  _325
REMARK  146  A    between atoms: _324  and  _327
REMARK  147  A    between atoms: _327  and  _328
REMARK  148  A    between atoms: _328  and  _329
REMARK  149  A    between atoms: _332  and  _334
REMARK  150  A    between atoms: _334  and  _335
REMARK  151  A    between atoms: _334  and  _337
REMARK  152  A    between atoms: _337  and  _338
REMARK  153  A    between atoms: _343  and  _344
REMARK  154  A    between atoms: _346  and  _348
REMARK  155  A    between atoms: _348  and  _349
REMARK  156  A    between atoms: _348  and  _351
REMARK  157  A    between atoms: _355  and  _356
REMARK  158  A    between atoms: _361  and  _363
REMARK  159  A    between atoms: _363  and  _364
REMARK  160  A    between atoms: _366  and  _368
REMARK  161  A    between atoms: _368  and  _369
REMARK  162  A    between atoms: _371  and  _373
REMARK  163  A    between atoms: _373  and  _374
REMARK  164  A    between atoms: _373  and  _376
REMARK  165  A    between atoms: _376  and  _377
REMARK  166  A    between atoms: _377  and  _378
REMARK  167  A    between atoms: _381  and  _383
REMARK  168  A    between atoms: _383  and  _384
REMARK  169  A    between atoms: _383  and  _386
REMARK  170  A    between atoms: _386  and  _387
REMARK  171  A    between atoms: _387  and  _388
REMARK  172  A    between atoms: _390  and  _392
REMARK  173  A    between atoms: _392  and  _393
REMARK  174  A    between atoms: _392  and  _395
REMARK  175  A    between atoms: _395  and  _396
REMARK  176  A    between atoms: _402  and  _404
REMARK  177  A    between atoms: _404  and  _405
REMARK  178  A    between atoms: _404  and  _407
REMARK  179  A    between atoms: _407  and  _408
REMARK  180  A    between atoms: _410  and  _412
REMARK  181  A    between atoms: _412  and  _413
REMARK  182  A    between atoms: _412  and  _415
REMARK  183  A    between atoms: _415  and  _416
REMARK  184  A    between atoms: _419  and  _421
REMARK  185  A    between atoms: _421  and  _422
REMARK  186  A    between atoms: _421  and  _424
REMARK  187  A    between atoms: _424  and  _425
REMARK  188  A    between atoms: _425  and  _426
REMARK  189  A    between atoms: _426  and  _427
REMARK  190  A    between atoms: _436  and  _438
REMARK  191  A    between atoms: _438  and  _439
REMARK  192  A    between atoms: _438  and  _441
REMARK  193  A    between atoms: _441  and  _442
REMARK  194  A    between atoms: _447  and  _448
REMARK  195  A    between atoms: _450  and  _452
REMARK  196  A    between atoms: _452  and  _453
REMARK  197  A    between atoms: _452  and  _455
REMARK  198  A    between atoms: _455  and  _456
REMARK  199  A    between atoms: _459  and  _461
REMARK  200  A    between atoms: _461  and  _462
REMARK  201  A    between atoms: _461  and  _464
REMARK  202  A    between atoms: _464  and  _465
REMARK  203  A    between atoms: _468  and  _470
REMARK  204  A    between atoms: _470  and  _471
REMARK  205  A    between atoms: _470  and  _473
REMARK  206  A    between atoms: _473  and  _474
REMARK  207  A    between atoms: _474  and  _475
REMARK  208  A    between atoms: _475  and  _476
REMARK  209  A    between atoms: _476  and  _477
REMARK  210  A    between atoms: _482  and  _483
REMARK  211  A    between atoms: _488  and  _490
REMARK  212  A    between atoms: _490  and  _491
REMARK  213  A    between atoms: _490  and  _493
REMARK  214  A    between atoms: _493  and  _494
REMARK  215  A    between atoms: _494  and  _495
REMARK  216  A    between atoms: _498  and  _500
REMARK  217  A    between atoms: _500  and  _501
REMARK  218  A    between atoms: _500  and  _503
REMARK  219  A    between atoms: _503  and  _504
REMARK  220  A    between atoms: _509  and  _511
REMARK  221  A    between atoms: _511  and  _512
REMARK  222  A    between atoms: _511  and  _514
REMARK  223  A    between atoms: _514  and  _515
REMARK  224  A    between atoms: _518  and  _520
REMARK  225  A    between atoms: _520  and  _521
REMARK  226  A    between atoms: _520  and  _523
REMARK  227  A    between atoms: _523  and  _524
REMARK  228  A    between atoms: _527  and  _529
REMARK  229  A    between atoms: _529  and  _530
REMARK  230  A    between atoms: _529  and  _532
REMARK  231  A    between atoms: _532  and  _533
REMARK  232  A    between atoms: _536  and  _538
REMARK  233  A    between atoms: _538  and  _539
REMARK  234  A    between atoms: _538  and  _541
REMARK  235  A    between atoms: _541  and  _542
REMARK  236  A    between atoms: _542  and  _543
REMARK  237  A    between atoms: _548  and  _550
REMARK  238  A    between atoms: _550  and  _551
REMARK  239  A    between atoms: _550  and  _553
REMARK  240  A    between atoms: _556  and  _558
REMARK  241  A    between atoms: _558  and  _559
REMARK  242  A    between atoms: _558  and  _561
REMARK  243  A    between atoms: _561  and  _562
REMARK  244  A    between atoms: _565  and  _567
REMARK  245  A    between atoms: _567  and  _568
REMARK  246  A    between atoms: _567  and  _570
REMARK  247  A    between atoms: _570  and  _571
REMARK  248  A    between atoms: _574  and  _576
REMARK  249  A    between atoms: _576  and  _577
REMARK  250  A    between atoms: _576  and  _579
REMARK  251  A    between atoms: _579  and  _580
REMARK  252  A    between atoms: _586  and  _588
REMARK  253  A    between atoms: _588  and  _589
REMARK  254  A    between atoms: _591  and  _593
REMARK  255  A    between atoms: _593  and  _594
REMARK  256  A    between atoms: _593  and  _596
REMARK  257  A    between atoms: _596  and  _597
REMARK  258  A    between atoms: _603  and  _605
REMARK  259  A    between atoms: _605  and  _606
REMARK  260  A    between atoms: _605  and  _608
REMARK  261  A    between atoms: _610  and  _612
REMARK  262  A    between atoms: _612  and  _613
REMARK  263  A    between atoms: _615  and  _617
REMARK  264  A    between atoms: _617  and  _618
REMARK  265  A    between atoms: _617  and  _620
REMARK  266  A    between atoms: _620  and  _621
REMARK  267  A    between atoms: _625  and  _626
REMARK  268  A    between atoms: _631  and  _633
REMARK  269  A    between atoms: _633  and  _634
REMARK  270  A    between atoms: _633  and  _636
REMARK  271  A    between atoms: _636  and  _637
REMARK  272  A    between atoms: _637  and  _638
REMARK  273  A    between atoms: _641  and  _643
REMARK  274  A    between atoms: _643  and  _644
REMARK  275  A    between atoms: _643  and  _646
REMARK  276  A    between atoms: _646  and  _647
REMARK  277  A    between atoms: _652  and  _653
REMARK  278  A    between atoms: _655  and  _657
REMARK  279  A    between atoms: _657  and  _658
REMARK  280  A    between atoms: _657  and  _660
REMARK  281  A    between atoms: _663  and  _665
REMARK  282  A    between atoms: _665  and  _666
REMARK  283  A    between atoms: _665  and  _668
REMARK  284  A    between atoms: _668  and  _669
REMARK  285  A    between atoms: _672  and  _674
REMARK  286  A    between atoms: _674  and  _675
REMARK  287  A    between atoms: _674  and  _677
REMARK  288  A    between atoms: _677  and  _678
REMARK  289  A    between atoms: _678  and  _679
REMARK  290  A    between atoms: _682  and  _684
REMARK  291  A    between atoms: _684  and  _685
REMARK  292  A    between atoms: _684  and  _687
REMARK  293  A    between atoms: _687  and  _688
REMARK  294  A    between atoms: _688  and  _689
REMARK  295  A    between atoms: _691  and  _693
REMARK  296  A    between atoms: _693  and  _694
REMARK  297  A    between atoms: _696  and  _698
REMARK  298  A    between atoms: _698  and  _699
REMARK  299  A    between atoms: _698  and  _701
REMARK  300  A    between atoms: _701  and  _702
REMARK  301  A    between atoms: _707  and  _708
REMARK  302  A    between atoms: _711  and  _712
REMARK  303  A    between atoms: _718  and  _719
REMARK  304  A    between atoms: _724  and  _726
REMARK  305  A    between atoms: _726  and  _727
REMARK  306  A    between atoms: _726  and  _729
REMARK  307  A    between atoms: _729  and  _730
REMARK  308  A    between atoms: _736  and  _738
REMARK  309  A    between atoms: _738  and  _739
REMARK  310  A    between atoms: _738  and  _741
REMARK  311  A    between atoms: _741  and  _742
REMARK  312  A    between atoms: _748  and  _750
REMARK  313  A    between atoms: _750  and  _751
REMARK  314  A    between atoms: _750  and  _753
REMARK  315  A    between atoms: _753  and  _754
REMARK  316  A    between atoms: _757  and  _759
REMARK  317  A    between atoms: _759  and  _760
REMARK  318  A    between atoms: _759  and  _762
REMARK  319  A    between atoms: _762  and  _763
REMARK  320  A    between atoms: _768  and  _770
REMARK  321  A    between atoms: _770  and  _771
REMARK  322  A    between atoms: _770  and  _773
REMARK  323  A    between atoms: _773  and  _774
REMARK  324  A    between atoms: _780  and  _782
REMARK  325  A    between atoms: _782  and  _783
REMARK  326  A    between atoms: _782  and  _785
REMARK  327  A    between atoms: _785  and  _786
REMARK  328  A    between atoms: _789  and  _791
REMARK  329  A    between atoms: _791  and  _792
REMARK  330  A    between atoms: _791  and  _794
REMARK  331  A    between atoms: _794  and  _795
REMARK  332  A    between atoms: _800  and  _801
REMARK                            x       y       z     vdW  Elec       q    Type
REMARK                         _______ _______ _______ _____ _____    ______ ____
ROOT
ATOM      1  CA  PHE A   2     -27.321   4.714   4.079  0.00  0.00    +0.153 C 
ENDROOT
BRANCH   1   4
ATOM      2  C   ASN A   1     -27.755   2.542   3.051  0.00  0.00    +0.239 C 
ATOM      3  O   ASN A   1     -27.124   1.935   3.913  0.00  0.00    -0.274 OA
ATOM      4  N   PHE A   2     -27.914   3.863   3.061  0.00  0.00    -0.297 N 
ATOM      5  H   PHE A   2     -28.485   4.304   2.311  0.00  0.00    +0.150 HD
BRANCH   2   6
ATOM      6  CA  ASN A   1     -28.422   1.788   1.895  0.00  0.00    +0.154 C 
BRANCH   6   7
ATOM      7  N   ASN A   1     -29.134   2.630   0.925  0.00  0.00    -0.238 NA
ATOM      8  H   ASN A   1     -28.633   2.946   0.070  0.00  0.00    +0.142 HD
ENDBRANCH   6   7
BRANCH   6   9
ATOM      9  CB  ASN A   1     -27.420   0.876   1.169  0.00  0.00    +0.111 C 
BRANCH   9  10
ATOM     10  CG  ASN A   1     -28.114  -0.140   0.296  0.00  0.00    +0.221 C 
ATOM     11  OD1 ASN A   1     -29.039  -0.786   0.747  0.00  0.00    -0.275 OA
ATOM     12  ND2 ASN A   1     -27.712  -0.247  -0.973  0.00  0.00    -0.329 N 
ATOM     13 HD21 ASN A   1     -26.915   0.326  -1.316  0.00  0.00    +0.145 HD
ATOM     14 HD22 ASN A   1     -28.196  -0.903  -1.618  0.00  0.00    +0.145 HD
ENDBRANCH   9  10
ENDBRANCH   6   9
ENDBRANCH   2   6
ENDBRANCH   1   4
BRANCH   1  15
ATOM     15  C   PHE A   2     -28.410   5.376   4.895  0.00  0.00    +0.241 C 
ATOM     16  N   ASP A   3     -28.078   5.661   6.145  0.00  0.00    -0.298 N 
ATOM     17  H   ASP A   3     -27.155   5.327   6.490  0.00  0.00    +0.150 HD
ATOM     18  O   PHE A   2     -29.496   5.612   4.404  0.00  0.00    -0.273 OA
BRANCH  16  19
ATOM     19  CA  ASP A   3     -28.911   6.405   7.063  0.00  0.00    +0.148 C 
BRANCH  19  20
ATOM     20  C   ASP A   3     -28.960   7.868   6.634  0.00  0.00    +0.227 C 
ATOM     21  O   ASP A   3     -28.069   8.356   5.939  0.00  0.00    -0.286 OA
ENDBRANCH  19  20
BRANCH  19  22
ATOM     22  CB  ASP A   3     -28.320   6.334   8.479  0.00  0.00    +0.142 C 
BRANCH  22  23
ATOM     23  CG  ASP A   3     -28.199   4.900   9.017  0.00  0.00    +0.367 C 
ATOM     24  OD2 ASP A   3     -27.253   4.635   9.791  0.00  0.00    -0.246 OA
ATOM     25  OD1 ASP A   3     -29.049   4.036   8.686  0.00  0.00    -0.246 OA
ENDBRANCH  22  23
ENDBRANCH  19  22
ENDBRANCH  16  19
ENDBRANCH   1  15
BRANCH   1  26
ATOM     26  CB  PHE A   2     -26.423   5.792   3.444  0.00  0.00    +0.055 C 
BRANCH  26  27
ATOM     27  CG  PHE A   2     -25.186   5.227   2.792  0.00  0.00    -0.020 A 
ATOM     28  CD2 PHE A   2     -23.976   5.165   3.495  0.00  0.00    -0.004 A 
ATOM     29  CE2 PHE A   2     -22.814   4.613   2.896  0.00  0.00    -0.000 A 
ATOM     30  CZ  PHE A   2     -22.884   4.113   1.598  0.00  0.00    -0.000 A 
ATOM     31  CE1 PHE A   2     -24.094   4.167   0.892  0.00  0.00    -0.000 A 
ATOM     32  CD1 PHE A   2     -25.242   4.713   1.504  0.00  0.00    -0.004 A 
ENDBRANCH  26  27
ENDBRANCH   1  26
TORSDOF 12
REMARK  Name = ../refined-set-2016/3agl/3agl_pocket.pdb
REMARK  332 active torsions:
REMARK  status: ('A' for Active; 'I' for Inactive)
REMARK    1  A    between atoms: _1  and  _3
REMARK    2  A    between atoms: _3  and  _4
REMARK    3  A    between atoms: _3  and  _6
REMARK    4  A    between atoms: _6  and  _7
REMARK    5  A    between atoms: _10  and  _12
REMARK    6  A    between atoms: _12  and  _13
REMARK    7  A    between atoms: _12  and  _15
REMARK    8  A    between atoms: _15  and  _16
REMARK    9  A    between atoms: _19  and  _21
REMARK   10  A    between atoms: _21  and  _22
REMARK   11  A    between atoms: _24  and  _26
REMARK   12  A    between atoms: _26  and  _27
REMARK   13  A    between atoms: _26  and  _29
REMARK   14  A    between atoms: _29  and  _30
REMARK   15  A    between atoms: _33  and  _35
REMARK   16  A    between atoms: _35  and  _36
REMARK   17  A    between atoms: _38  and  _40
REMARK   18  A    between atoms: _40  and  _41
REMARK   19  A    between atoms: _40  and  _43
REMARK   20  A    between atoms: _43  and  _44
REMARK   21  A    between atoms: _46  and  _48
REMARK   22  A    between atoms: _48  and  _49
REMARK   23  A    between atoms: _48  and  _51
REMARK   24  A    between atoms: _51  and  _52
REMARK   25  A    between atoms: _58  and  _60
REMARK   26  A    between atoms: _60  and  _61
REMARK   27  A    between atoms: _63  and  _65
REMARK   28  A    between atoms: _65  and  _66
REMARK   29  A    between atoms: _65  and  _68
REMARK   30  A    between atoms: _68  and  _69
REMARK   31  A    between atoms: _69  and  _70
REMARK   32  A    between atoms: _70  and  _71
REMARK   33  A    between atoms: _80  and  _82
REMARK   34  A    between atoms: _82  and  _83
REMARK   35  A    between atoms: _82  and  _85
REMARK   36  A    between atoms: _88  and  _90
REMARK   37  A    between atoms: _90  and  _91
REMARK   38  A    between atoms: _90  and  _93
REMARK   39  A    between atoms: _93  and  _94
REMARK   40  A    between atoms: _94  and  _95
REMARK   41  A    between atoms: _97  and  _99
REMARK   42  A    between atoms: _99  and  _100
REMARK   43  A    between atoms: _99  and  _102
REMARK   44  A    between atoms: _102  and  _103
REMARK   45  A    between atoms: _106  and  _108
REMARK   46  A    between atoms: _108  and  _109
REMARK   47  A    between atoms: _108  and  _111
REMARK   48  A    between atoms: _111  and  _112
REMARK   49  A    between atoms: _117  and  _118
REMARK   50  A    between atoms: _120  and  _122
REMARK   51  A    between atoms: _122  and  _123
REMARK   52  A    between atoms: _126  and  _128
REMARK   53  A    between atoms: _128  and  _129
REMARK   54  A    between atoms: _128  and  _131
REMARK   55  A    between atoms: _131  and  _132
REMARK   56  A    between atoms: _132  and  _133
REMARK   57  A    between atoms: _135  and  _137
REMARK   58  A    between atoms: _137  and  _138
REMARK   59  A    between atoms: _137  and  _140
REMARK   60  A    between atoms: _140  and  _141
REMARK   61  A    between atoms: _141  and  _142
REMARK   62  A    between atoms: _142  and  _143
REMARK   63  A    between atoms: _143  and  _144
REMARK   64  A    between atoms: _148  and  _150
REMARK   65  A    between atoms: _150  and  _151
REMARK   66  A    between atoms: _150  and  _153
REMARK   67  A    between atoms: _153  and  _154
REMARK   68  A    between atoms: _157  and  _159
REMARK   69  A    between atoms: _159  and  _160
REMARK   70  A    between atoms: _159  and  _162
REMARK   71  A    between atoms: _162  and  _163
REMARK   72  A    between atoms: _166  and  _168
REMARK   73  A    between atoms: _168  and  _169
REMARK   74  A    between atoms: _168  and  _171
REMARK   75  A    between atoms: _171  and  _172
REMARK   76  A    between atoms: _175  and  _177
REMARK   77  A    between atoms: _177  and  _178
REMARK   78  A    between atoms: _177  and  _180
REMARK   79  A    between atoms: _180  and  _181
REMARK   80  A    between atoms: _181  and  _182
REMARK   81  A    between atoms: _182  and  _183
REMARK   82  A    between atoms: _183  and  _184
REMARK   83  A    between atoms: _188  and  _190
REMARK   84  A    between atoms: _190  and  _191
REMARK   85  A    between atoms: _190  and  _193
REMARK   86  A    between atoms: _196  and  _198
REMARK   87  A    between atoms: _198  and  _199
REMARK   88  A    between atoms: _198  and  _201
REMARK   89  A    between atoms: _201  and  _202
REMARK   90  A    between atoms: _205  and  _207
REMARK   91  A    between atoms: _207  and  _208
REMARK   92  A    between atoms: _207  and  _210
REMARK   93  A    between atoms: _210  and  _211
REMARK   94  A    between atoms: _211  and  _212
REMARK   95  A    between atoms: _217  and  _219
REMARK   96  A    between atoms: _219  and  _220
REMARK   97  A    between atoms: _219  and  _222
REMARK   98  A    between atoms: _222  and  _223
REMARK   99  A    between atoms: _228  and  _230
REMARK  100  A    between atoms: _230  and  _231
REMARK  101  A    between atoms: _230  and  _233
REMARK  102  A    between atoms: _233  and  _234
REMARK  103  A    between atoms: _237  and  _239
REMARK  104  A    between atoms: _239  and  _240
REMARK  105  A    between atoms: _239  and  _242
REMARK  106  A    between atoms: _242  and  _243
REMARK  107  A    between atoms: _243  and  _244
REMARK  108  A    between atoms: _247  and  _249
REMARK  109  A    between atoms: _249  and  _250
REMARK  110  A    between atoms: _249  and  _252
REMARK  111  A    between atoms: _252  and  _253
REMARK  112  A    between atoms: _256  and  _258
REMARK  113  A    between atoms: _258  and  _259
REMARK  114  A    between atoms: _258  and  _261
REMARK  115  A    between atoms: _264  and  _266
REMARK  116  A    between atoms: _266  and  _267
REMARK  117  A    between atoms: _266  and  _269
REMARK  118  A    between atoms: _269  and  _270
REMARK  119  A    between atoms: _270  and  _271
REMARK  120  A    between atoms: _271  and  _272
REMARK  121  A    between atoms: _272  and  _273
REMARK  122  A    between atoms: _277  and  _279
REMARK  123  A    between atoms: _279  and  _280
REMARK  124  A    between atoms: _279  and  _282
REMARK  125  A    between atoms: _282  and  _283
REMARK  126  A    between atoms: _286  and  _288
REMARK  127  A    between atoms: _288  and  _289
REMARK  128  A    between atoms: _288  and  _291
REMARK  129  A    between atoms: _291  and  _292
REMARK  130  A    between atoms: _292  and  _293
REMARK  131  A    between atoms: _296  and  _298
REMARK  132  A    between atoms: _298  and  _299
REMARK  133  A    between atoms: _298  and  _301
REMARK  134  A    between atoms: _301  and  _302
REMARK  135  A    between atoms: _302  and  _303
REMARK  136  A    between atoms: _305  and  _307
REMARK  137  A    between atoms: _307  and  _308
REMARK  138  A    between atoms: _307  and  _310
REMARK  139  A    between atoms: _313  and  _315
REMARK  140  A    between atoms: _315  and  _316
REMARK  141  A    between atoms: _315  and  _318
REMARK  142  A    between atoms: _318  and  _319
REMARK  143  A    between atoms: _319  and  _320
REMARK  144  A    between atoms: _322  and  _324
REMARK  145  A    between atoms: _324  and  _325
REMARK  146  A    between atoms: _324  and  _327
REMARK  147  A    between atoms: _327  and  _328
REMARK  148  A    between atoms: _328  and  _329
REMARK  149  A    between atoms: _332  and  _334
REMARK  150  A    between atoms: _334  and  _335
REMARK  151  A    between atoms: _334  and  _337
REMARK  152  A    between atoms: _337  and  _338
REMARK  153  A    between atoms: _343  and  _344
REMARK  154  A    between atoms: _346  and  _348
REMARK  155  A    between atoms: _348  and  _349
REMARK  156  A    between atoms: _348  and  _351
REMARK  157  A    between atoms: _355  and  _356
REMARK  158  A    between atoms: _361  and  _363
REMARK  159  A    between atoms: _363  and  _364
REMARK  160  A    between atoms: _366  and  _368
REMARK  161  A    between atoms: _368  and  _369
REMARK  162  A    between atoms: _371  and  _373
REMARK  163  A    between atoms: _373  and  _374
REMARK  164  A    between atoms: _373  and  _376
REMARK  165  A    between atoms: _376  and  _377
REMARK  166  A    between atoms: _377  and  _378
REMARK  167  A    between atoms: _381  and  _383
REMARK  168  A    between atoms: _383  and  _384
REMARK  169  A    between atoms: _383  and  _386
REMARK  170  A    between atoms: _386  and  _387
REMARK  171  A    between atoms: _387  and  _388
REMARK  172  A    between atoms: _390  and  _392
REMARK  173  A    between atoms: _392  and  _393
REMARK  174  A    between atoms: _392  and  _395
REMARK  175  A    between atoms: _395  and  _396
REMARK  176  A    between atoms: _402  and  _404
REMARK  177  A    between atoms: _404  and  _405
REMARK  178  A    between atoms: _404  and  _407
REMARK  179  A    between atoms: _407  and  _408
REMARK  180  A    between atoms: _410  and  _412
REMARK  181  A    between atoms: _412  and  _413
REMARK  182  A    between atoms: _412  and  _415
REMARK  183  A    between atoms: _415  and  _416
REMARK  184  A    between atoms: _419  and  _421
REMARK  185  A    between atoms: _421  and  _422
REMARK  186  A    between atoms: _421  and  _424
REMARK  187  A    between atoms: _424  and  _425
REMARK  188  A    between atoms: _425  and  _426
REMARK  189  A    between atoms: _426  and  _427
REMARK  190  A    between atoms: _436  and  _438
REMARK  191  A    between atoms: _438  and  _439
REMARK  192  A    between atoms: _438  and  _441
REMARK  193  A    between atoms: _441  and  _442
REMARK  194  A    between atoms: _447  and  _448
REMARK  195  A    between atoms: _450  and  _452
REMARK  196  A    between atoms: _452  and  _453
REMARK  197  A    between atoms: _452  and  _455
REMARK  198  A    between atoms: _455  and  _456
REMARK  199  A    between atoms: _459  and  _461
REMARK  200  A    between atoms: _461  and  _462
REMARK  201  A    between atoms: _461  and  _464
REMARK  202  A    between atoms: _464  and  _465
REMARK  203  A    between atoms: _468  and  _470
REMARK  204  A    between atoms: _470  and  _471
REMARK  205  A    between atoms: _470  and  _473
REMARK  206  A    between atoms: _473  and  _474
REMARK  207  A    between atoms: _474  and  _475
REMARK  208  A    between atoms: _475  and  _476
REMARK  209  A    between atoms: _476  and  _477
REMARK  210  A    between atoms: _482  and  _483
REMARK  211  A    between atoms: _488  and  _490
REMARK  212  A    between atoms: _490  and  _491
REMARK  213  A    between atoms: _490  and  _493
REMARK  214  A    between atoms: _493  and  _494
REMARK  215  A    between atoms: _494  and  _495
REMARK  216  A    between atoms: _498  and  _500
REMARK  217  A    between atoms: _500  and  _501
REMARK  218  A    between atoms: _500  and  _503
REMARK  219  A    between atoms: _503  and  _504
REMARK  220  A    between atoms: _509  and  _511
REMARK  221  A    between atoms: _511  and  _512
REMARK  222  A    between atoms: _511  and  _514
REMARK  223  A    between atoms: _514  and  _515
REMARK  224  A    between atoms: _518  and  _520
REMARK  225  A    between atoms: _520  and  _521
REMARK  226  A    between atoms: _520  and  _523
REMARK  227  A    between atoms: _523  and  _524
REMARK  228  A    between atoms: _527  and  _529
REMARK  229  A    between atoms: _529  and  _530
REMARK  230  A    between atoms: _529  and  _532
REMARK  231  A    between atoms: _532  and  _533
REMARK  232  A    between atoms: _536  and  _538
REMARK  233  A    between atoms: _538  and  _539
REMARK  234  A    between atoms: _538  and  _541
REMARK  235  A    between atoms: _541  and  _542
REMARK  236  A    between atoms: _542  and  _543
REMARK  237  A    between atoms: _548  and  _550
REMARK  238  A    between atoms: _550  and  _551
REMARK  239  A    between atoms: _550  and  _553
REMARK  240  A    between atoms: _556  and  _558
REMARK  241  A    between atoms: _558  and  _559
REMARK  242  A    between atoms: _558  and  _561
REMARK  243  A    between atoms: _561  and  _562
REMARK  244  A    between atoms: _565  and  _567
REMARK  245  A    between atoms: _567  and  _568
REMARK  246  A    between atoms: _567  and  _570
REMARK  247  A    between atoms: _570  and  _571
REMARK  248  A    between atoms: _574  and  _576
REMARK  249  A    between atoms: _576  and  _577
REMARK  250  A    between atoms: _576  and  _579
REMARK  251  A    between atoms: _579  and  _580
REMARK  252  A    between atoms: _586  and  _588
REMARK  253  A    between atoms: _588  and  _589
REMARK  254  A    between atoms: _591  and  _593
REMARK  255  A    between atoms: _593  and  _594
REMARK  256  A    between atoms: _593  and  _596
REMARK  257  A    between atoms: _596  and  _597
REMARK  258  A    between atoms: _603  and  _605
REMARK  259  A    between atoms: _605  and  _606
REMARK  260  A    between atoms: _605  and  _608
REMARK  261  A    between atoms: _610  and  _612
REMARK  262  A    between atoms: _612  and  _613
REMARK  263  A    between atoms: _615  and  _617
REMARK  264  A    between atoms: _617  and  _618
REMARK  265  A    between atoms: _617  and  _620
REMARK  266  A    between atoms: _620  and  _621
REMARK  267  A    between atoms: _625  and  _626
REMARK  268  A    between atoms: _631  and  _633
REMARK  269  A    between atoms: _633  and  _634
REMARK  270  A    between atoms: _633  and  _636
REMARK  271  A    between atoms: _636  and  _637
REMARK  272  A    between atoms: _637  and  _638
REMARK  273  A    between atoms: _641  and  _643
REMARK  274  A    between atoms: _643  and  _644
REMARK  275  A    between atoms: _643  and  _646
REMARK  276  A    between atoms: _646  and  _647
REMARK  277  A    between atoms: _652  and  _653
REMARK  278  A    between atoms: _655  and  _657
REMARK  279  A    between atoms: _657  and  _658
REMARK  280  A    between atoms: _657  and  _660
REMARK  281  A    between atoms: _663  and  _665
REMARK  282  A    between atoms: _665  and  _666
REMARK  283  A    between atoms: _665  and  _668
REMARK  284  A    between atoms: _668  and  _669
REMARK  285  A    between atoms: _672  and  _674
REMARK  286  A    between atoms: _674  and  _675
REMARK  287  A    between atoms: _674  and  _677
REMARK  288  A    between atoms: _677  and  _678
REMARK  289  A    between atoms: _678  and  _679
REMARK  290  A    between atoms: _682  and  _684
REMARK  291  A    between atoms: _684  and  _685
REMARK  292  A    between atoms: _684  and  _687
REMARK  293  A    between atoms: _687  and  _688
REMARK  294  A    between atoms: _688  and  _689
REMARK  295  A    between atoms: _691  and  _693
REMARK  296  A    between atoms: _693  and  _694
REMARK  297  A    between atoms: _696  and  _698
REMARK  298  A    between atoms: _698  and  _699
REMARK  299  A    between atoms: _698  and  _701
REMARK  300  A    between atoms: _701  and  _702
REMARK  301  A    between atoms: _707  and  _708
REMARK  302  A    between atoms: _711  and  _712
REMARK  303  A    between atoms: _718  and  _719
REMARK  304  A    between atoms: _724  and  _726
REMARK  305  A    between atoms: _726  and  _727
REMARK  306  A    between atoms: _726  and  _729
REMARK  307  A    between atoms: _729  and  _730
REMARK  308  A    between atoms: _736  and  _738
REMARK  309  A    between atoms: _738  and  _739
REMARK  310  A    between atoms: _738  and  _741
REMARK  311  A    between atoms: _741  and  _742
REMARK  312  A    between atoms: _748  and  _750
REMARK  313  A    between atoms: _750  and  _751
REMARK  314  A    between atoms: _750  and  _753
REMARK  315  A    between atoms: _753  and  _754
REMARK  316  A    between atoms: _757  and  _759
REMARK  317  A    between atoms: _759  and  _760
REMARK  318  A    between atoms: _759  and  _762
REMARK  319  A    between atoms: _762  and  _763
REMARK  320  A    between atoms: _768  and  _770
REMARK  321  A    between atoms: _770  and  _771
REMARK  322  A    between atoms: _770  and  _773
REMARK  323  A    between atoms: _773  and  _774
REMARK  324  A    between atoms: _780  and  _782
REMARK  325  A    between atoms: _782  and  _783
REMARK  326  A    between atoms: _782  and  _785
REMARK  327  A    between atoms: _785  and  _786
REMARK  328  A    between atoms: _789  and  _791
REMARK  329  A    between atoms: _791  and  _792
REMARK  330  A    between atoms: _791  and  _794
REMARK  331  A    between atoms: _794  and  _795
REMARK  332  A    between atoms: _800  and  _801
REMARK                            x       y       z     vdW  Elec       q    Type
REMARK                         _______ _______ _______ _____ _____    ______ ____
ROOT
ATOM      1  CG  TYR A   1     -25.902  11.340   8.714  0.00  0.00    -0.020 A 
ATOM      2  CD2 TYR A   1     -25.377  11.197  10.004  0.00  0.00    -0.001 A 
ATOM      3  CE2 TYR A   1     -24.795   9.985  10.420  0.00  0.00    +0.036 A 
ATOM      4  CZ  TYR A   1     -24.742   8.912   9.543  0.00  0.00    +0.134 A 
ATOM      5  CE1 TYR A   1     -25.252   9.028   8.256  0.00  0.00    +0.036 A 
ATOM      6  CD1 TYR A   1     -25.839  10.238   7.846  0.00  0.00    -0.001 A 
ENDROOT
BRANCH   4   7
ATOM      7  OH  TYR A   1     -24.174   7.724   9.973  0.00  0.00    -0.506 OA
ATOM      8  HH  TYR A   1     -24.210   7.059   9.241  0.00  0.00    +0.292 HD
ENDBRANCH   4   7
BRANCH   1   9
ATOM      9  CB  TYR A   1     -26.519  12.639   8.277  0.00  0.00    +0.051 C 
BRANCH   9  10
ATOM     10  CA  TYR A   1     -28.045  12.705   8.448  0.00  0.00    +0.137 C 
BRANCH  10  11
ATOM     11  N   TYR A   1     -28.710  11.807   7.522  0.00  0.00    -0.239 NA
ATOM     12  H   TYR A   1     -28.624  11.983   6.501  0.00  0.00    +0.142 HD
ENDBRANCH  10  11
BRANCH  10  13
ATOM     13  C   TYR A   1     -28.524  14.110   8.160  0.00  0.00    +0.224 C 
ATOM     14  O   TYR A   1     -28.965  14.397   7.052  0.00  0.00    -0.287 OA
ENDBRANCH  10  13
ENDBRANCH   9  10
ENDBRANCH   1   9
TORSDOF 5
REMARK  Name = ../refined-set-2016/3agl/3agl_pocket.pdb
REMARK  332 active torsions:
REMARK  status: ('A' for Active; 'I' for Inactive)
REMARK    1  A    between atoms: _1  and  _3
REMARK    2  A    between atoms: _3  and  _4
REMARK    3  A    between atoms: _3  and  _6
REMARK    4  A    between atoms: _6  and  _7
REMARK    5  A    between atoms: _10  and  _12
REMARK    6  A    between atoms: _12  and  _13
REMARK    7  A    between atoms: _12  and  _15
REMARK    8  A    between atoms: _15  and  _16
REMARK    9  A    between atoms: _19  and  _21
REMARK   10  A    between atoms: _21  and  _22
REMARK   11  A    between atoms: _24  and  _26
REMARK   12  A    between atoms: _26  and  _27
REMARK   13  A    between atoms: _26  and  _29
REMARK   14  A    between atoms: _29  and  _30
REMARK   15  A    between atoms: _33  and  _35
REMARK   16  A    between atoms: _35  and  _36
REMARK   17  A    between atoms: _38  and  _40
REMARK   18  A    between atoms: _40  and  _41
REMARK   19  A    between atoms: _40  and  _43
REMARK   20  A    between atoms: _43  and  _44
REMARK   21  A    between atoms: _46  and  _48
REMARK   22  A    between atoms: _48  and  _49
REMARK   23  A    between atoms: _48  and  _51
REMARK   24  A    between atoms: _51  and  _52
REMARK   25  A    between atoms: _58  and  _60
REMARK   26  A    between atoms: _60  and  _61
REMARK   27  A    between atoms: _63  and  _65
REMARK   28  A    between atoms: _65  and  _66
REMARK   29  A    between atoms: _65  and  _68
REMARK   30  A    between atoms: _68  and  _69
REMARK   31  A    between atoms: _69  and  _70
REMARK   32  A    between atoms: _70  and  _71
REMARK   33  A    between atoms: _80  and  _82
REMARK   34  A    between atoms: _82  and  _83
REMARK   35  A    between atoms: _82  and  _85
REMARK   36  A    between atoms: _88  and  _90
REMARK   37  A    between atoms: _90  and  _91
REMARK   38  A    between atoms: _90  and  _93
REMARK   39  A    between atoms: _93  and  _94
REMARK   40  A    between atoms: _94  and  _95
REMARK   41  A    between atoms: _97  and  _99
REMARK   42  A    between atoms: _99  and  _100
REMARK   43  A    between atoms: _99  and  _102
REMARK   44  A    between atoms: _102  and  _103
REMARK   45  A    between atoms: _106  and  _108
REMARK   46  A    between atoms: _108  and  _109
REMARK   47  A    between atoms: _108  and  _111
REMARK   48  A    between atoms: _111  and  _112
REMARK   49  A    between atoms: _117  and  _118
REMARK   50  A    between atoms: _120  and  _122
REMARK   51  A    between atoms: _122  and  _123
REMARK   52  A    between atoms: _126  and  _128
REMARK   53  A    between atoms: _128  and  _129
REMARK   54  A    between atoms: _128  and  _131
REMARK   55  A    between atoms: _131  and  _132
REMARK   56  A    between atoms: _132  and  _133
REMARK   57  A    between atoms: _135  and  _137
REMARK   58  A    between atoms: _137  and  _138
REMARK   59  A    between atoms: _137  and  _140
REMARK   60  A    between atoms: _140  and  _141
REMARK   61  A    between atoms: _141  and  _142
REMARK   62  A    between atoms: _142  and  _143
REMARK   63  A    between atoms: _143  and  _144
REMARK   64  A    between atoms: _148  and  _150
REMARK   65  A    between atoms: _150  and  _151
REMARK   66  A    between atoms: _150  and  _153
REMARK   67  A    between atoms: _153  and  _154
REMARK   68  A    between atoms: _157  and  _159
REMARK   69  A    between atoms: _159  and  _160
REMARK   70  A    between atoms: _159  and  _162
REMARK   71  A    between atoms: _162  and  _163
REMARK   72  A    between atoms: _166  and  _168
REMARK   73  A    between atoms: _168  and  _169
REMARK   74  A    between atoms: _168  and  _171
REMARK   75  A    between atoms: _171  and  _172
REMARK   76  A    between atoms: _175  and  _177
REMARK   77  A    between atoms: _177  and  _178
REMARK   78  A    between atoms: _177  and  _180
REMARK   79  A    between atoms: _180  and  _181
REMARK   80  A    between atoms: _181  and  _182
REMARK   81  A    between atoms: _182  and  _183
REMARK   82  A    between atoms: _183  and  _184
REMARK   83  A    between atoms: _188  and  _190
REMARK   84  A    between atoms: _190  and  _191
REMARK   85  A    between atoms: _190  and  _193
REMARK   86  A    between atoms: _196  and  _198
REMARK   87  A    between atoms: _198  and  _199
REMARK   88  A    between atoms: _198  and  _201
REMARK   89  A    between atoms: _201  and  _202
REMARK   90  A    between atoms: _205  and  _207
REMARK   91  A    between atoms: _207  and  _208
REMARK   92  A    between atoms: _207  and  _210
REMARK   93  A    between atoms: _210  and  _211
REMARK   94  A    between atoms: _211  and  _212
REMARK   95  A    between atoms: _217  and  _219
REMARK   96  A    between atoms: _219  and  _220
REMARK   97  A    between atoms: _219  and  _222
REMARK   98  A    between atoms: _222  and  _223
REMARK   99  A    between atoms: _228  and  _230
REMARK  100  A    between atoms: _230  and  _231
REMARK  101  A    between atoms: _230  and  _233
REMARK  102  A    between atoms: _233  and  _234
REMARK  103  A    between atoms: _237  and  _239
REMARK  104  A    between atoms: _239  and  _240
REMARK  105  A    between atoms: _239  and  _242
REMARK  106  A    between atoms: _242  and  _243
REMARK  107  A    between atoms: _243  and  _244
REMARK  108  A    between atoms: _247  and  _249
REMARK  109  A    between atoms: _249  and  _250
REMARK  110  A    between atoms: _249  and  _252
REMARK  111  A    between atoms: _252  and  _253
REMARK  112  A    between atoms: _256  and  _258
REMARK  113  A    between atoms: _258  and  _259
REMARK  114  A    between atoms: _258  and  _261
REMARK  115  A    between atoms: _264  and  _266
REMARK  116  A    between atoms: _266  and  _267
REMARK  117  A    between atoms: _266  and  _269
REMARK  118  A    between atoms: _269  and  _270
REMARK  119  A    between atoms: _270  and  _271
REMARK  120  A    between atoms: _271  and  _272
REMARK  121  A    between atoms: _272  and  _273
REMARK  122  A    between atoms: _277  and  _279
REMARK  123  A    between atoms: _279  and  _280
REMARK  124  A    between atoms: _279  and  _282
REMARK  125  A    between atoms: _282  and  _283
REMARK  126  A    between atoms: _286  and  _288
REMARK  127  A    between atoms: _288  and  _289
REMARK  128  A    between atoms: _288  and  _291
REMARK  129  A    between atoms: _291  and  _292
REMARK  130  A    between atoms: _292  and  _293
REMARK  131  A    between atoms: _296  and  _298
REMARK  132  A    between atoms: _298  and  _299
REMARK  133  A    between atoms: _298  and  _301
REMARK  134  A    between atoms: _301  and  _302
REMARK  135  A    between atoms: _302  and  _303
REMARK  136  A    between atoms: _305  and  _307
REMARK  137  A    between atoms: _307  and  _308
REMARK  138  A    between atoms: _307  and  _310
REMARK  139  A    between atoms: _313  and  _315
REMARK  140  A    between atoms: _315  and  _316
REMARK  141  A    between atoms: _315  and  _318
REMARK  142  A    between atoms: _318  and  _319
REMARK  143  A    between atoms: _319  and  _320
REMARK  144  A    between atoms: _322  and  _324
REMARK  145  A    between atoms: _324  and  _325
REMARK  146  A    between atoms: _324  and  _327
REMARK  147  A    between atoms: _327  and  _328
REMARK  148  A    between atoms: _328  and  _329
REMARK  149  A    between atoms: _332  and  _334
REMARK  150  A    between atoms: _334  and  _335
REMARK  151  A    between atoms: _334  and  _337
REMARK  152  A    between atoms: _337  and  _338
REMARK  153  A    between atoms: _343  and  _344
REMARK  154  A    between atoms: _346  and  _348
REMARK  155  A    between atoms: _348  and  _349
REMARK  156  A    between atoms: _348  and  _351
REMARK  157  A    between atoms: _355  and  _356
REMARK  158  A    between atoms: _361  and  _363
REMARK  159  A    between atoms: _363  and  _364
REMARK  160  A    between atoms: _366  and  _368
REMARK  161  A    between atoms: _368  and  _369
REMARK  162  A    between atoms: _371  and  _373
REMARK  163  A    between atoms: _373  and  _374
REMARK  164  A    between atoms: _373  and  _376
REMARK  165  A    between atoms: _376  and  _377
REMARK  166  A    between atoms: _377  and  _378
REMARK  167  A    between atoms: _381  and  _383
REMARK  168  A    between atoms: _383  and  _384
REMARK  169  A    between atoms: _383  and  _386
REMARK  170  A    between atoms: _386  and  _387
REMARK  171  A    between atoms: _387  and  _388
REMARK  172  A    between atoms: _390  and  _392
REMARK  173  A    between atoms: _392  and  _393
REMARK  174  A    between atoms: _392  and  _395
REMARK  175  A    between atoms: _395  and  _396
REMARK  176  A    between atoms: _402  and  _404
REMARK  177  A    between atoms: _404  and  _405
REMARK  178  A    between atoms: _404  and  _407
REMARK  179  A    between atoms: _407  and  _408
REMARK  180  A    between atoms: _410  and  _412
REMARK  181  A    between atoms: _412  and  _413
REMARK  182  A    between atoms: _412  and  _415
REMARK  183  A    between atoms: _415  and  _416
REMARK  184  A    between atoms: _419  and  _421
REMARK  185  A    between atoms: _421  and  _422
REMARK  186  A    between atoms: _421  and  _424
REMARK  187  A    between atoms: _424  and  _425
REMARK  188  A    between atoms: _425  and  _426
REMARK  189  A    between atoms: _426  and  _427
REMARK  190  A    between atoms: _436  and  _438
REMARK  191  A    between atoms: _438  and  _439
REMARK  192  A    between atoms: _438  and  _441
REMARK  193  A    between atoms: _441  and  _442
REMARK  194  A    between atoms: _447  and  _448
REMARK  195  A    between atoms: _450  and  _452
REMARK  196  A    between atoms: _452  and  _453
REMARK  197  A    between atoms: _452  and  _455
REMARK  198  A    between atoms: _455  and  _456
REMARK  199  A    between atoms: _459  and  _461
REMARK  200  A    between atoms: _461  and  _462
REMARK  201  A    between atoms: _461  and  _464
REMARK  202  A    between atoms: _464  and  _465
REMARK  203  A    between atoms: _468  and  _470
REMARK  204  A    between atoms: _470  and  _471
REMARK  205  A    between atoms: _470  and  _473
REMARK  206  A    between atoms: _473  and  _474
REMARK  207  A    between atoms: _474  and  _475
REMARK  208  A    between atoms: _475  and  _476
REMARK  209  A    between atoms: _476  and  _477
REMARK  210  A    between atoms: _482  and  _483
REMARK  211  A    between atoms: _488  and  _490
REMARK  212  A    between atoms: _490  and  _491
REMARK  213  A    between atoms: _490  and  _493
REMARK  214  A    between atoms: _493  and  _494
REMARK  215  A    between atoms: _494  and  _495
REMARK  216  A    between atoms: _498  and  _500
REMARK  217  A    between atoms: _500  and  _501
REMARK  218  A    between atoms: _500  and  _503
REMARK  219  A    between atoms: _503  and  _504
REMARK  220  A    between atoms: _509  and  _511
REMARK  221  A    between atoms: _511  and  _512
REMARK  222  A    between atoms: _511  and  _514
REMARK  223  A    between atoms: _514  and  _515
REMARK  224  A    between atoms: _518  and  _520
REMARK  225  A    between atoms: _520  and  _521
REMARK  226  A    between atoms: _520  and  _523
REMARK  227  A    between atoms: _523  and  _524
REMARK  228  A    between atoms: _527  and  _529
REMARK  229  A    between atoms: _529  and  _530
REMARK  230  A    between atoms: _529  and  _532
REMARK  231  A    between atoms: _532  and  _533
REMARK  232  A    between atoms: _536  and  _538
REMARK  233  A    between atoms: _538  and  _539
REMARK  234  A    between atoms: _538  and  _541
REMARK  235  A    between atoms: _541  and  _542
REMARK  236  A    between atoms: _542  and  _543
REMARK  237  A    between atoms: _548  and  _550
REMARK  238  A    between atoms: _550  and  _551
REMARK  239  A    between atoms: _550  and  _553
REMARK  240  A    between atoms: _556  and  _558
REMARK  241  A    between atoms: _558  and  _559
REMARK  242  A    between atoms: _558  and  _561
REMARK  243  A    between atoms: _561  and  _562
REMARK  244  A    between atoms: _565  and  _567
REMARK  245  A    between atoms: _567  and  _568
REMARK  246  A    between atoms: _567  and  _570
REMARK  247  A    between atoms: _570  and  _571
REMARK  248  A    between atoms: _574  and  _576
REMARK  249  A    between atoms: _576  and  _577
REMARK  250  A    between atoms: _576  and  _579
REMARK  251  A    between atoms: _579  and  _580
REMARK  252  A    between atoms: _586  and  _588
REMARK  253  A    between atoms: _588  and  _589
REMARK  254  A    between atoms: _591  and  _593
REMARK  255  A    between atoms: _593  and  _594
REMARK  256  A    between atoms: _593  and  _596
REMARK  257  A    between atoms: _596  and  _597
REMARK  258  A    between atoms: _603  and  _605
REMARK  259  A    between atoms: _605  and  _606
REMARK  260  A    between atoms: _605  and  _608
REMARK  261  A    between atoms: _610  and  _612
REMARK  262  A    between atoms: _612  and  _613
REMARK  263  A    between atoms: _615  and  _617
REMARK  264  A    between atoms: _617  and  _618
REMARK  265  A    between atoms: _617  and  _620
REMARK  266  A    between atoms: _620  and  _621
REMARK  267  A    between atoms: _625  and  _626
REMARK  268  A    between atoms: _631  and  _633
REMARK  269  A    between atoms: _633  and  _634
REMARK  270  A    between atoms: _633  and  _636
REMARK  271  A    between atoms: _636  and  _637
REMARK  272  A    between atoms: _637  and  _638
REMARK  273  A    between atoms: _641  and  _643
REMARK  274  A    between atoms: _643  and  _644
REMARK  275  A    between atoms: _643  and  _646
REMARK  276  A    between atoms: _646  and  _647
REMARK  277  A    between atoms: _652  and  _653
REMARK  278  A    between atoms: _655  and  _657
REMARK  279  A    between atoms: _657  and  _658
REMARK  280  A    between atoms: _657  and  _660
REMARK  281  A    between atoms: _663  and  _665
REMARK  282  A    between atoms: _665  and  _666
REMARK  283  A    between atoms: _665  and  _668
REMARK  284  A    between atoms: _668  and  _669
REMARK  285  A    between atoms: _672  and  _674
REMARK  286  A    between atoms: _674  and  _675
REMARK  287  A    between atoms: _674  and  _677
REMARK  288  A    between atoms: _677  and  _678
REMARK  289  A    between atoms: _678  and  _679
REMARK  290  A    between atoms: _682  and  _684
REMARK  291  A    between atoms: _684  and  _685
REMARK  292  A    between atoms: _684  and  _687
REMARK  293  A    between atoms: _687  and  _688
REMARK  294  A    between atoms: _688  and  _689
REMARK  295  A    between atoms: _691  and  _693
REMARK  296  A    between atoms: _693  and  _694
REMARK  297  A    between atoms: _696  and  _698
REMARK  298  A    between atoms: _698  and  _699
REMARK  299  A    between atoms: _698  and  _701
REMARK  300  A    between atoms: _701  and  _702
REMARK  301  A    between atoms: _707  and  _708
REMARK  302  A    between atoms: _711  and  _712
REMARK  303  A    between atoms: _718  and  _719
REMARK  304  A    between atoms: _724  and  _726
REMARK  305  A    between atoms: _726  and  _727
REMARK  306  A    between atoms: _726  and  _729
REMARK  307  A    between atoms: _729  and  _730
REMARK  308  A    between atoms: _736  and  _738
REMARK  309  A    between atoms: _738  and  _739
REMARK  310  A    between atoms: _738  and  _741
REMARK  311  A    between atoms: _741  and  _742
REMARK  312  A    between atoms: _748  and  _750
REMARK  313  A    between atoms: _750  and  _751
REMARK  314  A    between atoms: _750  and  _753
REMARK  315  A    between atoms: _753  and  _754
REMARK  316  A    between atoms: _757  and  _759
REMARK  317  A    between atoms: _759  and  _760
REMARK  318  A    between atoms: _759  and  _762
REMARK  319  A    between atoms: _762  and  _763
REMARK  320  A    between atoms: _768  and  _770
REMARK  321  A    between atoms: _770  and  _771
REMARK  322  A    between atoms: _770  and  _773
REMARK  323  A    between atoms: _773  and  _774
REMARK  324  A    between atoms: _780  and  _782
REMARK  325  A    between atoms: _782  and  _783
REMARK  326  A    between atoms: _782  and  _785
REMARK  327  A    between atoms: _785  and  _786
REMARK  328  A    between atoms: _789  and  _791
REMARK  329  A    between atoms: _791  and  _792
REMARK  330  A    between atoms: _791  and  _794
REMARK  331  A    between atoms: _794  and  _795
REMARK  332  A    between atoms: _800  and  _801
REMARK                            x       y       z     vdW  Elec       q    Type
REMARK                         _______ _______ _______ _____ _____    ______ ____
ROOT
ATOM      1  O   HOH     1     -16.436  -5.179  22.335  0.00  0.00    +0.000 OA
ENDROOT
TORSDOF 0
REMARK  Name = ../refined-set-2016/3agl/3agl_pocket.pdb
REMARK  332 active torsions:
REMARK  status: ('A' for Active; 'I' for Inactive)
REMARK    1  A    between atoms: _1  and  _3
REMARK    2  A    between atoms: _3  and  _4
REMARK    3  A    between atoms: _3  and  _6
REMARK    4  A    between atoms: _6  and  _7
REMARK    5  A    between atoms: _10  and  _12
REMARK    6  A    between atoms: _12  and  _13
REMARK    7  A    between atoms: _12  and  _15
REMARK    8  A    between atoms: _15  and  _16
REMARK    9  A    between atoms: _19  and  _21
REMARK   10  A    between atoms: _21  and  _22
REMARK   11  A    between atoms: _24  and  _26
REMARK   12  A    between atoms: _26  and  _27
REMARK   13  A    between atoms: _26  and  _29
REMARK   14  A    between atoms: _29  and  _30
REMARK   15  A    between atoms: _33  and  _35
REMARK   16  A    between atoms: _35  and  _36
REMARK   17  A    between atoms: _38  and  _40
REMARK   18  A    between atoms: _40  and  _41
REMARK   19  A    between atoms: _40  and  _43
REMARK   20  A    between atoms: _43  and  _44
REMARK   21  A    between atoms: _46  and  _48
REMARK   22  A    between atoms: _48  and  _49
REMARK   23  A    between atoms: _48  and  _51
REMARK   24  A    between atoms: _51  and  _52
REMARK   25  A    between atoms: _58  and  _60
REMARK   26  A    between atoms: _60  and  _61
REMARK   27  A    between atoms: _63  and  _65
REMARK   28  A    between atoms: _65  and  _66
REMARK   29  A    between atoms: _65  and  _68
REMARK   30  A    between atoms: _68  and  _69
REMARK   31  A    between atoms: _69  and  _70
REMARK   32  A    between atoms: _70  and  _71
REMARK   33  A    between atoms: _80  and  _82
REMARK   34  A    between atoms: _82  and  _83
REMARK   35  A    between atoms: _82  and  _85
REMARK   36  A    between atoms: _88  and  _90
REMARK   37  A    between atoms: _90  and  _91
REMARK   38  A    between atoms: _90  and  _93
REMARK   39  A    between atoms: _93  and  _94
REMARK   40  A    between atoms: _94  and  _95
REMARK   41  A    between atoms: _97  and  _99
REMARK   42  A    between atoms: _99  and  _100
REMARK   43  A    between atoms: _99  and  _102
REMARK   44  A    between atoms: _102  and  _103
REMARK   45  A    between atoms: _106  and  _108
REMARK   46  A    between atoms: _108  and  _109
REMARK   47  A    between atoms: _108  and  _111
REMARK   48  A    between atoms: _111  and  _112
REMARK   49  A    between atoms: _117  and  _118
REMARK   50  A    between atoms: _120  and  _122
REMARK   51  A    between atoms: _122  and  _123
REMARK   52  A    between atoms: _126  and  _128
REMARK   53  A    between atoms: _128  and  _129
REMARK   54  A    between atoms: _128  and  _131
REMARK   55  A    between atoms: _131  and  _132
REMARK   56  A    between atoms: _132  and  _133
REMARK   57  A    between atoms: _135  and  _137
REMARK   58  A    between atoms: _137  and  _138
REMARK   59  A    between atoms: _137  and  _140
REMARK   60  A    between atoms: _140  and  _141
REMARK   61  A    between atoms: _141  and  _142
REMARK   62  A    between atoms: _142  and  _143
REMARK   63  A    between atoms: _143  and  _144
REMARK   64  A    between atoms: _148  and  _150
REMARK   65  A    between atoms: _150  and  _151
REMARK   66  A    between atoms: _150  and  _153
REMARK   67  A    between atoms: _153  and  _154
REMARK   68  A    between atoms: _157  and  _159
REMARK   69  A    between atoms: _159  and  _160
REMARK   70  A    between atoms: _159  and  _162
REMARK   71  A    between atoms: _162  and  _163
REMARK   72  A    between atoms: _166  and  _168
REMARK   73  A    between atoms: _168  and  _169
REMARK   74  A    between atoms: _168  and  _171
REMARK   75  A    between atoms: _171  and  _172
REMARK   76  A    between atoms: _175  and  _177
REMARK   77  A    between atoms: _177  and  _178
REMARK   78  A    between atoms: _177  and  _180
REMARK   79  A    between atoms: _180  and  _181
REMARK   80  A    between atoms: _181  and  _182
REMARK   81  A    between atoms: _182  and  _183
REMARK   82  A    between atoms: _183  and  _184
REMARK   83  A    between atoms: _188  and  _190
REMARK   84  A    between atoms: _190  and  _191
REMARK   85  A    between atoms: _190  and  _193
REMARK   86  A    between atoms: _196  and  _198
REMARK   87  A    between atoms: _198  and  _199
REMARK   88  A    between atoms: _198  and  _201
REMARK   89  A    between atoms: _201  and  _202
REMARK   90  A    between atoms: _205  and  _207
REMARK   91  A    between atoms: _207  and  _208
REMARK   92  A    between atoms: _207  and  _210
REMARK   93  A    between atoms: _210  and  _211
REMARK   94  A    between atoms: _211  and  _212
REMARK   95  A    between atoms: _217  and  _219
REMARK   96  A    between atoms: _219  and  _220
REMARK   97  A    between atoms: _219  and  _222
REMARK   98  A    between atoms: _222  and  _223
REMARK   99  A    between atoms: _228  and  _230
REMARK  100  A    between atoms: _230  and  _231
REMARK  101  A    between atoms: _230  and  _233
REMARK  102  A    between atoms: _233  and  _234
REMARK  103  A    between atoms: _237  and  _239
REMARK  104  A    between atoms: _239  and  _240
REMARK  105  A    between atoms: _239  and  _242
REMARK  106  A    between atoms: _242  and  _243
REMARK  107  A    between atoms: _243  and  _244
REMARK  108  A    between atoms: _247  and  _249
REMARK  109  A    between atoms: _249  and  _250
REMARK  110  A    between atoms: _249  and  _252
REMARK  111  A    between atoms: _252  and  _253
REMARK  112  A    between atoms: _256  and  _258
REMARK  113  A    between atoms: _258  and  _259
REMARK  114  A    between atoms: _258  and  _261
REMARK  115  A    between atoms: _264  and  _266
REMARK  116  A    between atoms: _266  and  _267
REMARK  117  A    between atoms: _266  and  _269
REMARK  118  A    between atoms: _269  and  _270
REMARK  119  A    between atoms: _270  and  _271
REMARK  120  A    between atoms: _271  and  _272
REMARK  121  A    between atoms: _272  and  _273
REMARK  122  A    between atoms: _277  and  _279
REMARK  123  A    between atoms: _279  and  _280
REMARK  124  A    between atoms: _279  and  _282
REMARK  125  A    between atoms: _282  and  _283
REMARK  126  A    between atoms: _286  and  _288
REMARK  127  A    between atoms: _288  and  _289
REMARK  128  A    between atoms: _288  and  _291
REMARK  129  A    between atoms: _291  and  _292
REMARK  130  A    between atoms: _292  and  _293
REMARK  131  A    between atoms: _296  and  _298
REMARK  132  A    between atoms: _298  and  _299
REMARK  133  A    between atoms: _298  and  _301
REMARK  134  A    between atoms: _301  and  _302
REMARK  135  A    between atoms: _302  and  _303
REMARK  136  A    between atoms: _305  and  _307
REMARK  137  A    between atoms: _307  and  _308
REMARK  138  A    between atoms: _307  and  _310
REMARK  139  A    between atoms: _313  and  _315
REMARK  140  A    between atoms: _315  and  _316
REMARK  141  A    between atoms: _315  and  _318
REMARK  142  A    between atoms: _318  and  _319
REMARK  143  A    between atoms: _319  and  _320
REMARK  144  A    between atoms: _322  and  _324
REMARK  145  A    between atoms: _324  and  _325
REMARK  146  A    between atoms: _324  and  _327
REMARK  147  A    between atoms: _327  and  _328
REMARK  148  A    between atoms: _328  and  _329
REMARK  149  A    between atoms: _332  and  _334
REMARK  150  A    between atoms: _334  and  _335
REMARK  151  A    between atoms: _334  and  _337
REMARK  152  A    between atoms: _337  and  _338
REMARK  153  A    between atoms: _343  and  _344
REMARK  154  A    between atoms: _346  and  _348
REMARK  155  A    between atoms: _348  and  _349
REMARK  156  A    between atoms: _348  and  _351
REMARK  157  A    between atoms: _355  and  _356
REMARK  158  A    between atoms: _361  and  _363
REMARK  159  A    between atoms: _363  and  _364
REMARK  160  A    between atoms: _366  and  _368
REMARK  161  A    between atoms: _368  and  _369
REMARK  162  A    between atoms: _371  and  _373
REMARK  163  A    between atoms: _373  and  _374
REMARK  164  A    between atoms: _373  and  _376
REMARK  165  A    between atoms: _376  and  _377
REMARK  166  A    between atoms: _377  and  _378
REMARK  167  A    between atoms: _381  and  _383
REMARK  168  A    between atoms: _383  and  _384
REMARK  169  A    between atoms: _383  and  _386
REMARK  170  A    between atoms: _386  and  _387
REMARK  171  A    between atoms: _387  and  _388
REMARK  172  A    between atoms: _390  and  _392
REMARK  173  A    between atoms: _392  and  _393
REMARK  174  A    between atoms: _392  and  _395
REMARK  175  A    between atoms: _395  and  _396
REMARK  176  A    between atoms: _402  and  _404
REMARK  177  A    between atoms: _404  and  _405
REMARK  178  A    between atoms: _404  and  _407
REMARK  179  A    between atoms: _407  and  _408
REMARK  180  A    between atoms: _410  and  _412
REMARK  181  A    between atoms: _412  and  _413
REMARK  182  A    between atoms: _412  and  _415
REMARK  183  A    between atoms: _415  and  _416
REMARK  184  A    between atoms: _419  and  _421
REMARK  185  A    between atoms: _421  and  _422
REMARK  186  A    between atoms: _421  and  _424
REMARK  187  A    between atoms: _424  and  _425
REMARK  188  A    between atoms: _425  and  _426
REMARK  189  A    between atoms: _426  and  _427
REMARK  190  A    between atoms: _436  and  _438
REMARK  191  A    between atoms: _438  and  _439
REMARK  192  A    between atoms: _438  and  _441
REMARK  193  A    between atoms: _441  and  _442
REMARK  194  A    between atoms: _447  and  _448
REMARK  195  A    between atoms: _450  and  _452
REMARK  196  A    between atoms: _452  and  _453
REMARK  197  A    between atoms: _452  and  _455
REMARK  198  A    between atoms: _455  and  _456
REMARK  199  A    between atoms: _459  and  _461
REMARK  200  A    between atoms: _461  and  _462
REMARK  201  A    between atoms: _461  and  _464
REMARK  202  A    between atoms: _464  and  _465
REMARK  203  A    between atoms: _468  and  _470
REMARK  204  A    between atoms: _470  and  _471
REMARK  205  A    between atoms: _470  and  _473
REMARK  206  A    between atoms: _473  and  _474
REMARK  207  A    between atoms: _474  and  _475
REMARK  208  A    between atoms: _475  and  _476
REMARK  209  A    between atoms: _476  and  _477
REMARK  210  A    between atoms: _482  and  _483
REMARK  211  A    between atoms: _488  and  _490
REMARK  212  A    between atoms: _490  and  _491
REMARK  213  A    between atoms: _490  and  _493
REMARK  214  A    between atoms: _493  and  _494
REMARK  215  A    between atoms: _494  and  _495
REMARK  216  A    between atoms: _498  and  _500
REMARK  217  A    between atoms: _500  and  _501
REMARK  218  A    between atoms: _500  and  _503
REMARK  219  A    between atoms: _503  and  _504
REMARK  220  A    between atoms: _509  and  _511
REMARK  221  A    between atoms: _511  and  _512
REMARK  222  A    between atoms: _511  and  _514
REMARK  223  A    between atoms: _514  and  _515
REMARK  224  A    between atoms: _518  and  _520
REMARK  225  A    between atoms: _520  and  _521
REMARK  226  A    between atoms: _520  and  _523
REMARK  227  A    between atoms: _523  and  _524
REMARK  228  A    between atoms: _527  and  _529
REMARK  229  A    between atoms: _529  and  _530
REMARK  230  A    between atoms: _529  and  _532
REMARK  231  A    between atoms: _532  and  _533
REMARK  232  A    between atoms: _536  and  _538
REMARK  233  A    between atoms: _538  and  _539
REMARK  234  A    between atoms: _538  and  _541
REMARK  235  A    between atoms: _541  and  _542
REMARK  236  A    between atoms: _542  and  _543
REMARK  237  A    between atoms: _548  and  _550
REMARK  238  A    between atoms: _550  and  _551
REMARK  239  A    between atoms: _550  and  _553
REMARK  240  A    between atoms: _556  and  _558
REMARK  241  A    between atoms: _558  and  _559
REMARK  242  A    between atoms: _558  and  _561
REMARK  243  A    between atoms: _561  and  _562
REMARK  244  A    between atoms: _565  and  _567
REMARK  245  A    between atoms: _567  and  _568
REMARK  246  A    between atoms: _567  and  _570
REMARK  247  A    between atoms: _570  and  _571
REMARK  248  A    between atoms: _574  and  _576
REMARK  249  A    between atoms: _576  and  _577
REMARK  250  A    between atoms: _576  and  _579
REMARK  251  A    between atoms: _579  and  _580
REMARK  252  A    between atoms: _586  and  _588
REMARK  253  A    between atoms: _588  and  _589
REMARK  254  A    between atoms: _591  and  _593
REMARK  255  A    between atoms: _593  and  _594
REMARK  256  A    between atoms: _593  and  _596
REMARK  257  A    between atoms: _596  and  _597
REMARK  258  A    between atoms: _603  and  _605
REMARK  259  A    between atoms: _605  and  _606
REMARK  260  A    between atoms: _605  and  _608
REMARK  261  A    between atoms: _610  and  _612
REMARK  262  A    between atoms: _612  and  _613
REMARK  263  A    between atoms: _615  and  _617
REMARK  264  A    between atoms: _617  and  _618
REMARK  265  A    between atoms: _617  and  _620
REMARK  266  A    between atoms: _620  and  _621
REMARK  267  A    between atoms: _625  and  _626
REMARK  268  A    between atoms: _631  and  _633
REMARK  269  A    between atoms: _633  and  _634
REMARK  270  A    between atoms: _633  and  _636
REMARK  271  A    between atoms: _636  and  _637
REMARK  272  A    between atoms: _637  and  _638
REMARK  273  A    between atoms: _641  and  _643
REMARK  274  A    between atoms: _643  and  _644
REMARK  275  A    between atoms: _643  and  _646
REMARK  276  A    between atoms: _646  and  _647
REMARK  277  A    between atoms: _652  and  _653
REMARK  278  A    between atoms: _655  and  _657
REMARK  279  A    between atoms: _657  and  _658
REMARK  280  A    between atoms: _657  and  _660
REMARK  281  A    between atoms: _663  and  _665
REMARK  282  A    between atoms: _665  and  _666
REMARK  283  A    between atoms: _665  and  _668
REMARK  284  A    between atoms: _668  and  _669
REMARK  285  A    between atoms: _672  and  _674
REMARK  286  A    between atoms: _674  and  _675
REMARK  287  A    between atoms: _674  and  _677
REMARK  288  A    between atoms: _677  and  _678
REMARK  289  A    between atoms: _678  and  _679
REMARK  290  A    between atoms: _682  and  _684
REMARK  291  A    between atoms: _684  and  _685
REMARK  292  A    between atoms: _684  and  _687
REMARK  293  A    between atoms: _687  and  _688
REMARK  294  A    between atoms: _688  and  _689
REMARK  295  A    between atoms: _691  and  _693
REMARK  296  A    between atoms: _693  and  _694
REMARK  297  A    between atoms: _696  and  _698
REMARK  298  A    between atoms: _698  and  _699
REMARK  299  A    between atoms: _698  and  _701
REMARK  300  A    between atoms: _701  and  _702
REMARK  301  A    between atoms: _707  and  _708
REMARK  302  A    between atoms: _711  and  _712
REMARK  303  A    between atoms: _718  and  _719
REMARK  304  A    between atoms: _724  and  _726
REMARK  305  A    between atoms: _726  and  _727
REMARK  306  A    between atoms: _726  and  _729
REMARK  307  A    between atoms: _729  and  _730
REMARK  308  A    between atoms: _736  and  _738
REMARK  309  A    between atoms: _738  and  _739
REMARK  310  A    between atoms: _738  and  _741
REMARK  311  A    between atoms: _741  and  _742
REMARK  312  A    between atoms: _748  and  _750
REMARK  313  A    between atoms: _750  and  _751
REMARK  314  A    between atoms: _750  and  _753
REMARK  315  A    between atoms: _753  and  _754
REMARK  316  A    between atoms: _757  and  _759
REMARK  317  A    between atoms: _759  and  _760
REMARK  318  A    between atoms: _759  and  _762
REMARK  319  A    between atoms: _762  and  _763
REMARK  320  A    between atoms: _768  and  _770
REMARK  321  A    between atoms: _770  and  _771
REMARK  322  A    between atoms: _770  and  _773
REMARK  323  A    between atoms: _773  and  _774
REMARK  324  A    between atoms: _780  and  _782
REMARK  325  A    between atoms: _782  and  _783
REMARK  326  A    between atoms: _782  and  _785
REMARK  327  A    between atoms: _785  and  _786
REMARK  328  A    between atoms: _789  and  _791
REMARK  329  A    between atoms: _791  and  _792
REMARK  330  A    between atoms: _791  and  _794
REMARK  331  A    between atoms: _794  and  _795
REMARK  332  A    between atoms: _800  and  _801
REMARK                            x       y       z     vdW  Elec       q    Type
REMARK                         _______ _______ _______ _____ _____    ______ ____
ROOT
ATOM      1  O   HOH     1     -25.861   3.711  14.605  0.00  0.00    +0.000 OA
ENDROOT
TORSDOF 0
REMARK  Name = ../refined-set-2016/3agl/3agl_pocket.pdb
REMARK  332 active torsions:
REMARK  status: ('A' for Active; 'I' for Inactive)
REMARK    1  A    between atoms: _1  and  _3
REMARK    2  A    between atoms: _3  and  _4
REMARK    3  A    between atoms: _3  and  _6
REMARK    4  A    between atoms: _6  and  _7
REMARK    5  A    between atoms: _10  and  _12
REMARK    6  A    between atoms: _12  and  _13
REMARK    7  A    between atoms: _12  and  _15
REMARK    8  A    between atoms: _15  and  _16
REMARK    9  A    between atoms: _19  and  _21
REMARK   10  A    between atoms: _21  and  _22
REMARK   11  A    between atoms: _24  and  _26
REMARK   12  A    between atoms: _26  and  _27
REMARK   13  A    between atoms: _26  and  _29
REMARK   14  A    between atoms: _29  and  _30
REMARK   15  A    between atoms: _33  and  _35
REMARK   16  A    between atoms: _35  and  _36
REMARK   17  A    between atoms: _38  and  _40
REMARK   18  A    between atoms: _40  and  _41
REMARK   19  A    between atoms: _40  and  _43
REMARK   20  A    between atoms: _43  and  _44
REMARK   21  A    between atoms: _46  and  _48
REMARK   22  A    between atoms: _48  and  _49
REMARK   23  A    between atoms: _48  and  _51
REMARK   24  A    between atoms: _51  and  _52
REMARK   25  A    between atoms: _58  and  _60
REMARK   26  A    between atoms: _60  and  _61
REMARK   27  A    between atoms: _63  and  _65
REMARK   28  A    between atoms: _65  and  _66
REMARK   29  A    between atoms: _65  and  _68
REMARK   30  A    between atoms: _68  and  _69
REMARK   31  A    between atoms: _69  and  _70
REMARK   32  A    between atoms: _70  and  _71
REMARK   33  A    between atoms: _80  and  _82
REMARK   34  A    between atoms: _82  and  _83
REMARK   35  A    between atoms: _82  and  _85
REMARK   36  A    between atoms: _88  and  _90
REMARK   37  A    between atoms: _90  and  _91
REMARK   38  A    between atoms: _90  and  _93
REMARK   39  A    between atoms: _93  and  _94
REMARK   40  A    between atoms: _94  and  _95
REMARK   41  A    between atoms: _97  and  _99
REMARK   42  A    between atoms: _99  and  _100
REMARK   43  A    between atoms: _99  and  _102
REMARK   44  A    between atoms: _102  and  _103
REMARK   45  A    between atoms: _106  and  _108
REMARK   46  A    between atoms: _108  and  _109
REMARK   47  A    between atoms: _108  and  _111
REMARK   48  A    between atoms: _111  and  _112
REMARK   49  A    between atoms: _117  and  _118
REMARK   50  A    between atoms: _120  and  _122
REMARK   51  A    between atoms: _122  and  _123
REMARK   52  A    between atoms: _126  and  _128
REMARK   53  A    between atoms: _128  and  _129
REMARK   54  A    between atoms: _128  and  _131
REMARK   55  A    between atoms: _131  and  _132
REMARK   56  A    between atoms: _132  and  _133
REMARK   57  A    between atoms: _135  and  _137
REMARK   58  A    between atoms: _137  and  _138
REMARK   59  A    between atoms: _137  and  _140
REMARK   60  A    between atoms: _140  and  _141
REMARK   61  A    between atoms: _141  and  _142
REMARK   62  A    between atoms: _142  and  _143
REMARK   63  A    between atoms: _143  and  _144
REMARK   64  A    between atoms: _148  and  _150
REMARK   65  A    between atoms: _150  and  _151
REMARK   66  A    between atoms: _150  and  _153
REMARK   67  A    between atoms: _153  and  _154
REMARK   68  A    between atoms: _157  and  _159
REMARK   69  A    between atoms: _159  and  _160
REMARK   70  A    between atoms: _159  and  _162
REMARK   71  A    between atoms: _162  and  _163
REMARK   72  A    between atoms: _166  and  _168
REMARK   73  A    between atoms: _168  and  _169
REMARK   74  A    between atoms: _168  and  _171
REMARK   75  A    between atoms: _171  and  _172
REMARK   76  A    between atoms: _175  and  _177
REMARK   77  A    between atoms: _177  and  _178
REMARK   78  A    between atoms: _177  and  _180
REMARK   79  A    between atoms: _180  and  _181
REMARK   80  A    between atoms: _181  and  _182
REMARK   81  A    between atoms: _182  and  _183
REMARK   82  A    between atoms: _183  and  _184
REMARK   83  A    between atoms: _188  and  _190
REMARK   84  A    between atoms: _190  and  _191
REMARK   85  A    between atoms: _190  and  _193
REMARK   86  A    between atoms: _196  and  _198
REMARK   87  A    between atoms: _198  and  _199
REMARK   88  A    between atoms: _198  and  _201
REMARK   89  A    between atoms: _201  and  _202
REMARK   90  A    between atoms: _205  and  _207
REMARK   91  A    between atoms: _207  and  _208
REMARK   92  A    between atoms: _207  and  _210
REMARK   93  A    between atoms: _210  and  _211
REMARK   94  A    between atoms: _211  and  _212
REMARK   95  A    between atoms: _217  and  _219
REMARK   96  A    between atoms: _219  and  _220
REMARK   97  A    between atoms: _219  and  _222
REMARK   98  A    between atoms: _222  and  _223
REMARK   99  A    between atoms: _228  and  _230
REMARK  100  A    between atoms: _230  and  _231
REMARK  101  A    between atoms: _230  and  _233
REMARK  102  A    between atoms: _233  and  _234
REMARK  103  A    between atoms: _237  and  _239
REMARK  104  A    between atoms: _239  and  _240
REMARK  105  A    between atoms: _239  and  _242
REMARK  106  A    between atoms: _242  and  _243
REMARK  107  A    between atoms: _243  and  _244
REMARK  108  A    between atoms: _247  and  _249
REMARK  109  A    between atoms: _249  and  _250
REMARK  110  A    between atoms: _249  and  _252
REMARK  111  A    between atoms: _252  and  _253
REMARK  112  A    between atoms: _256  and  _258
REMARK  113  A    between atoms: _258  and  _259
REMARK  114  A    between atoms: _258  and  _261
REMARK  115  A    between atoms: _264  and  _266
REMARK  116  A    between atoms: _266  and  _267
REMARK  117  A    between atoms: _266  and  _269
REMARK  118  A    between atoms: _269  and  _270
REMARK  119  A    between atoms: _270  and  _271
REMARK  120  A    between atoms: _271  and  _272
REMARK  121  A    between atoms: _272  and  _273
REMARK  122  A    between atoms: _277  and  _279
REMARK  123  A    between atoms: _279  and  _280
REMARK  124  A    between atoms: _279  and  _282
REMARK  125  A    between atoms: _282  and  _283
REMARK  126  A    between atoms: _286  and  _288
REMARK  127  A    between atoms: _288  and  _289
REMARK  128  A    between atoms: _288  and  _291
REMARK  129  A    between atoms: _291  and  _292
REMARK  130  A    between atoms: _292  and  _293
REMARK  131  A    between atoms: _296  and  _298
REMARK  132  A    between atoms: _298  and  _299
REMARK  133  A    between atoms: _298  and  _301
REMARK  134  A    between atoms: _301  and  _302
REMARK  135  A    between atoms: _302  and  _303
REMARK  136  A    between atoms: _305  and  _307
REMARK  137  A    between atoms: _307  and  _308
REMARK  138  A    between atoms: _307  and  _310
REMARK  139  A    between atoms: _313  and  _315
REMARK  140  A    between atoms: _315  and  _316
REMARK  141  A    between atoms: _315  and  _318
REMARK  142  A    between atoms: _318  and  _319
REMARK  143  A    between atoms: _319  and  _320
REMARK  144  A    between atoms: _322  and  _324
REMARK  145  A    between atoms: _324  and  _325
REMARK  146  A    between atoms: _324  and  _327
REMARK  147  A    between atoms: _327  and  _328
REMARK  148  A    between atoms: _328  and  _329
REMARK  149  A    between atoms: _332  and  _334
REMARK  150  A    between atoms: _334  and  _335
REMARK  151  A    between atoms: _334  and  _337
REMARK  152  A    between atoms: _337  and  _338
REMARK  153  A    between atoms: _343  and  _344
REMARK  154  A    between atoms: _346  and  _348
REMARK  155  A    between atoms: _348  and  _349
REMARK  156  A    between atoms: _348  and  _351
REMARK  157  A    between atoms: _355  and  _356
REMARK  158  A    between atoms: _361  and  _363
REMARK  159  A    between atoms: _363  and  _364
REMARK  160  A    between atoms: _366  and  _368
REMARK  161  A    between atoms: _368  and  _369
REMARK  162  A    between atoms: _371  and  _373
REMARK  163  A    between atoms: _373  and  _374
REMARK  164  A    between atoms: _373  and  _376
REMARK  165  A    between atoms: _376  and  _377
REMARK  166  A    between atoms: _377  and  _378
REMARK  167  A    between atoms: _381  and  _383
REMARK  168  A    between atoms: _383  and  _384
REMARK  169  A    between atoms: _383  and  _386
REMARK  170  A    between atoms: _386  and  _387
REMARK  171  A    between atoms: _387  and  _388
REMARK  172  A    between atoms: _390  and  _392
REMARK  173  A    between atoms: _392  and  _393
REMARK  174  A    between atoms: _392  and  _395
REMARK  175  A    between atoms: _395  and  _396
REMARK  176  A    between atoms: _402  and  _404
REMARK  177  A    between atoms: _404  and  _405
REMARK  178  A    between atoms: _404  and  _407
REMARK  179  A    between atoms: _407  and  _408
REMARK  180  A    between atoms: _410  and  _412
REMARK  181  A    between atoms: _412  and  _413
REMARK  182  A    between atoms: _412  and  _415
REMARK  183  A    between atoms: _415  and  _416
REMARK  184  A    between atoms: _419  and  _421
REMARK  185  A    between atoms: _421  and  _422
REMARK  186  A    between atoms: _421  and  _424
REMARK  187  A    between atoms: _424  and  _425
REMARK  188  A    between atoms: _425  and  _426
REMARK  189  A    between atoms: _426  and  _427
REMARK  190  A    between atoms: _436  and  _438
REMARK  191  A    between atoms: _438  and  _439
REMARK  192  A    between atoms: _438  and  _441
REMARK  193  A    between atoms: _441  and  _442
REMARK  194  A    between atoms: _447  and  _448
REMARK  195  A    between atoms: _450  and  _452
REMARK  196  A    between atoms: _452  and  _453
REMARK  197  A    between atoms: _452  and  _455
REMARK  198  A    between atoms: _455  and  _456
REMARK  199  A    between atoms: _459  and  _461
REMARK  200  A    between atoms: _461  and  _462
REMARK  201  A    between atoms: _461  and  _464
REMARK  202  A    between atoms: _464  and  _465
REMARK  203  A    between atoms: _468  and  _470
REMARK  204  A    between atoms: _470  and  _471
REMARK  205  A    between atoms: _470  and  _473
REMARK  206  A    between atoms: _473  and  _474
REMARK  207  A    between atoms: _474  and  _475
REMARK  208  A    between atoms: _475  and  _476
REMARK  209  A    between atoms: _476  and  _477
REMARK  210  A    between atoms: _482  and  _483
REMARK  211  A    between atoms: _488  and  _490
REMARK  212  A    between atoms: _490  and  _491
REMARK  213  A    between atoms: _490  and  _493
REMARK  214  A    between atoms: _493  and  _494
REMARK  215  A    between atoms: _494  and  _495
REMARK  216  A    between atoms: _498  and  _500
REMARK  217  A    between atoms: _500  and  _501
REMARK  218  A    between atoms: _500  and  _503
REMARK  219  A    between atoms: _503  and  _504
REMARK  220  A    between atoms: _509  and  _511
REMARK  221  A    between atoms: _511  and  _512
REMARK  222  A    between atoms: _511  and  _514
REMARK  223  A    between atoms: _514  and  _515
REMARK  224  A    between atoms: _518  and  _520
REMARK  225  A    between atoms: _520  and  _521
REMARK  226  A    between atoms: _520  and  _523
REMARK  227  A    between atoms: _523  and  _524
REMARK  228  A    between atoms: _527  and  _529
REMARK  229  A    between atoms: _529  and  _530
REMARK  230  A    between atoms: _529  and  _532
REMARK  231  A    between atoms: _532  and  _533
REMARK  232  A    between atoms: _536  and  _538
REMARK  233  A    between atoms: _538  and  _539
REMARK  234  A    between atoms: _538  and  _541
REMARK  235  A    between atoms: _541  and  _542
REMARK  236  A    between atoms: _542  and  _543
REMARK  237  A    between atoms: _548  and  _550
REMARK  238  A    between atoms: _550  and  _551
REMARK  239  A    between atoms: _550  and  _553
REMARK  240  A    between atoms: _556  and  _558
REMARK  241  A    between atoms: _558  and  _559
REMARK  242  A    between atoms: _558  and  _561
REMARK  243  A    between atoms: _561  and  _562
REMARK  244  A    between atoms: _565  and  _567
REMARK  245  A    between atoms: _567  and  _568
REMARK  246  A    between atoms: _567  and  _570
REMARK  247  A    between atoms: _570  and  _571
REMARK  248  A    between atoms: _574  and  _576
REMARK  249  A    between atoms: _576  and  _577
REMARK  250  A    between atoms: _576  and  _579
REMARK  251  A    between atoms: _579  and  _580
REMARK  252  A    between atoms: _586  and  _588
REMARK  253  A    between atoms: _588  and  _589
REMARK  254  A    between atoms: _591  and  _593
REMARK  255  A    between atoms: _593  and  _594
REMARK  256  A    between atoms: _593  and  _596
REMARK  257  A    between atoms: _596  and  _597
REMARK  258  A    between atoms: _603  and  _605
REMARK  259  A    between atoms: _605  and  _606
REMARK  260  A    between atoms: _605  and  _608
REMARK  261  A    between atoms: _610  and  _612
REMARK  262  A    between atoms: _612  and  _613
REMARK  263  A    between atoms: _615  and  _617
REMARK  264  A    between atoms: _617  and  _618
REMARK  265  A    between atoms: _617  and  _620
REMARK  266  A    between atoms: _620  and  _621
REMARK  267  A    between atoms: _625  and  _626
REMARK  268  A    between atoms: _631  and  _633
REMARK  269  A    between atoms: _633  and  _634
REMARK  270  A    between atoms: _633  and  _636
REMARK  271  A    between atoms: _636  and  _637
REMARK  272  A    between atoms: _637  and  _638
REMARK  273  A    between atoms: _641  and  _643
REMARK  274  A    between atoms: _643  and  _644
REMARK  275  A    between atoms: _643  and  _646
REMARK  276  A    between atoms: _646  and  _647
REMARK  277  A    between atoms: _652  and  _653
REMARK  278  A    between atoms: _655  and  _657
REMARK  279  A    between atoms: _657  and  _658
REMARK  280  A    between atoms: _657  and  _660
REMARK  281  A    between atoms: _663  and  _665
REMARK  282  A    between atoms: _665  and  _666
REMARK  283  A    between atoms: _665  and  _668
REMARK  284  A    between atoms: _668  and  _669
REMARK  285  A    between atoms: _672  and  _674
REMARK  286  A    between atoms: _674  and  _675
REMARK  287  A    between atoms: _674  and  _677
REMARK  288  A    between atoms: _677  and  _678
REMARK  289  A    between atoms: _678  and  _679
REMARK  290  A    between atoms: _682  and  _684
REMARK  291  A    between atoms: _684  and  _685
REMARK  292  A    between atoms: _684  and  _687
REMARK  293  A    between atoms: _687  and  _688
REMARK  294  A    between atoms: _688  and  _689
REMARK  295  A    between atoms: _691  and  _693
REMARK  296  A    between atoms: _693  and  _694
REMARK  297  A    between atoms: _696  and  _698
REMARK  298  A    between atoms: _698  and  _699
REMARK  299  A    between atoms: _698  and  _701
REMARK  300  A    between atoms: _701  and  _702
REMARK  301  A    between atoms: _707  and  _708
REMARK  302  A    between atoms: _711  and  _712
REMARK  303  A    between atoms: _718  and  _719
REMARK  304  A    between atoms: _724  and  _726
REMARK  305  A    between atoms: _726  and  _727
REMARK  306  A    between atoms: _726  and  _729
REMARK  307  A    between atoms: _729  and  _730
REMARK  308  A    between atoms: _736  and  _738
REMARK  309  A    between atoms: _738  and  _739
REMARK  310  A    between atoms: _738  and  _741
REMARK  311  A    between atoms: _741  and  _742
REMARK  312  A    between atoms: _748  and  _750
REMARK  313  A    between atoms: _750  and  _751
REMARK  314  A    between atoms: _750  and  _753
REMARK  315  A    between atoms: _753  and  _754
REMARK  316  A    between atoms: _757  and  _759
REMARK  317  A    between atoms: _759  and  _760
REMARK  318  A    between atoms: _759  and  _762
REMARK  319  A    between atoms: _762  and  _763
REMARK  320  A    between atoms: _768  and  _770
REMARK  321  A    between atoms: _770  and  _771
REMARK  322  A    between atoms: _770  and  _773
REMARK  323  A    between atoms: _773  and  _774
REMARK  324  A    between atoms: _780  and  _782
REMARK  325  A    between atoms: _782  and  _783
REMARK  326  A    between atoms: _782  and  _785
REMARK  327  A    between atoms: _785  and  _786
REMARK  328  A    between atoms: _789  and  _791
REMARK  329  A    between atoms: _791  and  _792
REMARK  330  A    between atoms: _791  and  _794
REMARK  331  A    between atoms: _794  and  _795
REMARK  332  A    between atoms: _800  and  _801
REMARK                            x       y       z     vdW  Elec       q    Type
REMARK                         _______ _______ _______ _____ _____    ______ ____
ROOT
ATOM      1  O   HOH     1     -18.796   3.900  14.895  0.00  0.00    +0.000 OA
ENDROOT
TORSDOF 0
REMARK  Name = ../refined-set-2016/3agl/3agl_pocket.pdb
REMARK  332 active torsions:
REMARK  status: ('A' for Active; 'I' for Inactive)
REMARK    1  A    between atoms: _1  and  _3
REMARK    2  A    between atoms: _3  and  _4
REMARK    3  A    between atoms: _3  and  _6
REMARK    4  A    between atoms: _6  and  _7
REMARK    5  A    between atoms: _10  and  _12
REMARK    6  A    between atoms: _12  and  _13
REMARK    7  A    between atoms: _12  and  _15
REMARK    8  A    between atoms: _15  and  _16
REMARK    9  A    between atoms: _19  and  _21
REMARK   10  A    between atoms: _21  and  _22
REMARK   11  A    between atoms: _24  and  _26
REMARK   12  A    between atoms: _26  and  _27
REMARK   13  A    between atoms: _26  and  _29
REMARK   14  A    between atoms: _29  and  _30
REMARK   15  A    between atoms: _33  and  _35
REMARK   16  A    between atoms: _35  and  _36
REMARK   17  A    between atoms: _38  and  _40
REMARK   18  A    between atoms: _40  and  _41
REMARK   19  A    between atoms: _40  and  _43
REMARK   20  A    between atoms: _43  and  _44
REMARK   21  A    between atoms: _46  and  _48
REMARK   22  A    between atoms: _48  and  _49
REMARK   23  A    between atoms: _48  and  _51
REMARK   24  A    between atoms: _51  and  _52
REMARK   25  A    between atoms: _58  and  _60
REMARK   26  A    between atoms: _60  and  _61
REMARK   27  A    between atoms: _63  and  _65
REMARK   28  A    between atoms: _65  and  _66
REMARK   29  A    between atoms: _65  and  _68
REMARK   30  A    between atoms: _68  and  _69
REMARK   31  A    between atoms: _69  and  _70
REMARK   32  A    between atoms: _70  and  _71
REMARK   33  A    between atoms: _80  and  _82
REMARK   34  A    between atoms: _82  and  _83
REMARK   35  A    between atoms: _82  and  _85
REMARK   36  A    between atoms: _88  and  _90
REMARK   37  A    between atoms: _90  and  _91
REMARK   38  A    between atoms: _90  and  _93
REMARK   39  A    between atoms: _93  and  _94
REMARK   40  A    between atoms: _94  and  _95
REMARK   41  A    between atoms: _97  and  _99
REMARK   42  A    between atoms: _99  and  _100
REMARK   43  A    between atoms: _99  and  _102
REMARK   44  A    between atoms: _102  and  _103
REMARK   45  A    between atoms: _106  and  _108
REMARK   46  A    between atoms: _108  and  _109
REMARK   47  A    between atoms: _108  and  _111
REMARK   48  A    between atoms: _111  and  _112
REMARK   49  A    between atoms: _117  and  _118
REMARK   50  A    between atoms: _120  and  _122
REMARK   51  A    between atoms: _122  and  _123
REMARK   52  A    between atoms: _126  and  _128
REMARK   53  A    between atoms: _128  and  _129
REMARK   54  A    between atoms: _128  and  _131
REMARK   55  A    between atoms: _131  and  _132
REMARK   56  A    between atoms: _132  and  _133
REMARK   57  A    between atoms: _135  and  _137
REMARK   58  A    between atoms: _137  and  _138
REMARK   59  A    between atoms: _137  and  _140
REMARK   60  A    between atoms: _140  and  _141
REMARK   61  A    between atoms: _141  and  _142
REMARK   62  A    between atoms: _142  and  _143
REMARK   63  A    between atoms: _143  and  _144
REMARK   64  A    between atoms: _148  and  _150
REMARK   65  A    between atoms: _150  and  _151
REMARK   66  A    between atoms: _150  and  _153
REMARK   67  A    between atoms: _153  and  _154
REMARK   68  A    between atoms: _157  and  _159
REMARK   69  A    between atoms: _159  and  _160
REMARK   70  A    between atoms: _159  and  _162
REMARK   71  A    between atoms: _162  and  _163
REMARK   72  A    between atoms: _166  and  _168
REMARK   73  A    between atoms: _168  and  _169
REMARK   74  A    between atoms: _168  and  _171
REMARK   75  A    between atoms: _171  and  _172
REMARK   76  A    between atoms: _175  and  _177
REMARK   77  A    between atoms: _177  and  _178
REMARK   78  A    between atoms: _177  and  _180
REMARK   79  A    between atoms: _180  and  _181
REMARK   80  A    between atoms: _181  and  _182
REMARK   81  A    between atoms: _182  and  _183
REMARK   82  A    between atoms: _183  and  _184
REMARK   83  A    between atoms: _188  and  _190
REMARK   84  A    between atoms: _190  and  _191
REMARK   85  A    between atoms: _190  and  _193
REMARK   86  A    between atoms: _196  and  _198
REMARK   87  A    between atoms: _198  and  _199
REMARK   88  A    between atoms: _198  and  _201
REMARK   89  A    between atoms: _201  and  _202
REMARK   90  A    between atoms: _205  and  _207
REMARK   91  A    between atoms: _207  and  _208
REMARK   92  A    between atoms: _207  and  _210
REMARK   93  A    between atoms: _210  and  _211
REMARK   94  A    between atoms: _211  and  _212
REMARK   95  A    between atoms: _217  and  _219
REMARK   96  A    between atoms: _219  and  _220
REMARK   97  A    between atoms: _219  and  _222
REMARK   98  A    between atoms: _222  and  _223
REMARK   99  A    between atoms: _228  and  _230
REMARK  100  A    between atoms: _230  and  _231
REMARK  101  A    between atoms: _230  and  _233
REMARK  102  A    between atoms: _233  and  _234
REMARK  103  A    between atoms: _237  and  _239
REMARK  104  A    between atoms: _239  and  _240
REMARK  105  A    between atoms: _239  and  _242
REMARK  106  A    between atoms: _242  and  _243
REMARK  107  A    between atoms: _243  and  _244
REMARK  108  A    between atoms: _247  and  _249
REMARK  109  A    between atoms: _249  and  _250
REMARK  110  A    between atoms: _249  and  _252
REMARK  111  A    between atoms: _252  and  _253
REMARK  112  A    between atoms: _256  and  _258
REMARK  113  A    between atoms: _258  and  _259
REMARK  114  A    between atoms: _258  and  _261
REMARK  115  A    between atoms: _264  and  _266
REMARK  116  A    between atoms: _266  and  _267
REMARK  117  A    between atoms: _266  and  _269
REMARK  118  A    between atoms: _269  and  _270
REMARK  119  A    between atoms: _270  and  _271
REMARK  120  A    between atoms: _271  and  _272
REMARK  121  A    between atoms: _272  and  _273
REMARK  122  A    between atoms: _277  and  _279
REMARK  123  A    between atoms: _279  and  _280
REMARK  124  A    between atoms: _279  and  _282
REMARK  125  A    between atoms: _282  and  _283
REMARK  126  A    between atoms: _286  and  _288
REMARK  127  A    between atoms: _288  and  _289
REMARK  128  A    between atoms: _288  and  _291
REMARK  129  A    between atoms: _291  and  _292
REMARK  130  A    between atoms: _292  and  _293
REMARK  131  A    between atoms: _296  and  _298
REMARK  132  A    between atoms: _298  and  _299
REMARK  133  A    between atoms: _298  and  _301
REMARK  134  A    between atoms: _301  and  _302
REMARK  135  A    between atoms: _302  and  _303
REMARK  136  A    between atoms: _305  and  _307
REMARK  137  A    between atoms: _307  and  _308
REMARK  138  A    between atoms: _307  and  _310
REMARK  139  A    between atoms: _313  and  _315
REMARK  140  A    between atoms: _315  and  _316
REMARK  141  A    between atoms: _315  and  _318
REMARK  142  A    between atoms: _318  and  _319
REMARK  143  A    between atoms: _319  and  _320
REMARK  144  A    between atoms: _322  and  _324
REMARK  145  A    between atoms: _324  and  _325
REMARK  146  A    between atoms: _324  and  _327
REMARK  147  A    between atoms: _327  and  _328
REMARK  148  A    between atoms: _328  and  _329
REMARK  149  A    between atoms: _332  and  _334
REMARK  150  A    between atoms: _334  and  _335
REMARK  151  A    between atoms: _334  and  _337
REMARK  152  A    between atoms: _337  and  _338
REMARK  153  A    between atoms: _343  and  _344
REMARK  154  A    between atoms: _346  and  _348
REMARK  155  A    between atoms: _348  and  _349
REMARK  156  A    between atoms: _348  and  _351
REMARK  157  A    between atoms: _355  and  _356
REMARK  158  A    between atoms: _361  and  _363
REMARK  159  A    between atoms: _363  and  _364
REMARK  160  A    between atoms: _366  and  _368
REMARK  161  A    between atoms: _368  and  _369
REMARK  162  A    between atoms: _371  and  _373
REMARK  163  A    between atoms: _373  and  _374
REMARK  164  A    between atoms: _373  and  _376
REMARK  165  A    between atoms: _376  and  _377
REMARK  166  A    between atoms: _377  and  _378
REMARK  167  A    between atoms: _381  and  _383
REMARK  168  A    between atoms: _383  and  _384
REMARK  169  A    between atoms: _383  and  _386
REMARK  170  A    between atoms: _386  and  _387
REMARK  171  A    between atoms: _387  and  _388
REMARK  172  A    between atoms: _390  and  _392
REMARK  173  A    between atoms: _392  and  _393
REMARK  174  A    between atoms: _392  and  _395
REMARK  175  A    between atoms: _395  and  _396
REMARK  176  A    between atoms: _402  and  _404
REMARK  177  A    between atoms: _404  and  _405
REMARK  178  A    between atoms: _404  and  _407
REMARK  179  A    between atoms: _407  and  _408
REMARK  180  A    between atoms: _410  and  _412
REMARK  181  A    between atoms: _412  and  _413
REMARK  182  A    between atoms: _412  and  _415
REMARK  183  A    between atoms: _415  and  _416
REMARK  184  A    between atoms: _419  and  _421
REMARK  185  A    between atoms: _421  and  _422
REMARK  186  A    between atoms: _421  and  _424
REMARK  187  A    between atoms: _424  and  _425
REMARK  188  A    between atoms: _425  and  _426
REMARK  189  A    between atoms: _426  and  _427
REMARK  190  A    between atoms: _436  and  _438
REMARK  191  A    between atoms: _438  and  _439
REMARK  192  A    between atoms: _438  and  _441
REMARK  193  A    between atoms: _441  and  _442
REMARK  194  A    between atoms: _447  and  _448
REMARK  195  A    between atoms: _450  and  _452
REMARK  196  A    between atoms: _452  and  _453
REMARK  197  A    between atoms: _452  and  _455
REMARK  198  A    between atoms: _455  and  _456
REMARK  199  A    between atoms: _459  and  _461
REMARK  200  A    between atoms: _461  and  _462
REMARK  201  A    between atoms: _461  and  _464
REMARK  202  A    between atoms: _464  and  _465
REMARK  203  A    between atoms: _468  and  _470
REMARK  204  A    between atoms: _470  and  _471
REMARK  205  A    between atoms: _470  and  _473
REMARK  206  A    between atoms: _473  and  _474
REMARK  207  A    between atoms: _474  and  _475
REMARK  208  A    between atoms: _475  and  _476
REMARK  209  A    between atoms: _476  and  _477
REMARK  210  A    between atoms: _482  and  _483
REMARK  211  A    between atoms: _488  and  _490
REMARK  212  A    between atoms: _490  and  _491
REMARK  213  A    between atoms: _490  and  _493
REMARK  214  A    between atoms: _493  and  _494
REMARK  215  A    between atoms: _494  and  _495
REMARK  216  A    between atoms: _498  and  _500
REMARK  217  A    between atoms: _500  and  _501
REMARK  218  A    between atoms: _500  and  _503
REMARK  219  A    between atoms: _503  and  _504
REMARK  220  A    between atoms: _509  and  _511
REMARK  221  A    between atoms: _511  and  _512
REMARK  222  A    between atoms: _511  and  _514
REMARK  223  A    between atoms: _514  and  _515
REMARK  224  A    between atoms: _518  and  _520
REMARK  225  A    between atoms: _520  and  _521
REMARK  226  A    between atoms: _520  and  _523
REMARK  227  A    between atoms: _523  and  _524
REMARK  228  A    between atoms: _527  and  _529
REMARK  229  A    between atoms: _529  and  _530
REMARK  230  A    between atoms: _529  and  _532
REMARK  231  A    between atoms: _532  and  _533
REMARK  232  A    between atoms: _536  and  _538
REMARK  233  A    between atoms: _538  and  _539
REMARK  234  A    between atoms: _538  and  _541
REMARK  235  A    between atoms: _541  and  _542
REMARK  236  A    between atoms: _542  and  _543
REMARK  237  A    between atoms: _548  and  _550
REMARK  238  A    between atoms: _550  and  _551
REMARK  239  A    between atoms: _550  and  _553
REMARK  240  A    between atoms: _556  and  _558
REMARK  241  A    between atoms: _558  and  _559
REMARK  242  A    between atoms: _558  and  _561
REMARK  243  A    between atoms: _561  and  _562
REMARK  244  A    between atoms: _565  and  _567
REMARK  245  A    between atoms: _567  and  _568
REMARK  246  A    between atoms: _567  and  _570
REMARK  247  A    between atoms: _570  and  _571
REMARK  248  A    between atoms: _574  and  _576
REMARK  249  A    between atoms: _576  and  _577
REMARK  250  A    between atoms: _576  and  _579
REMARK  251  A    between atoms: _579  and  _580
REMARK  252  A    between atoms: _586  and  _588
REMARK  253  A    between atoms: _588  and  _589
REMARK  254  A    between atoms: _591  and  _593
REMARK  255  A    between atoms: _593  and  _594
REMARK  256  A    between atoms: _593  and  _596
REMARK  257  A    between atoms: _596  and  _597
REMARK  258  A    between atoms: _603  and  _605
REMARK  259  A    between atoms: _605  and  _606
REMARK  260  A    between atoms: _605  and  _608
REMARK  261  A    between atoms: _610  and  _612
REMARK  262  A    between atoms: _612  and  _613
REMARK  263  A    between atoms: _615  and  _617
REMARK  264  A    between atoms: _617  and  _618
REMARK  265  A    between atoms: _617  and  _620
REMARK  266  A    between atoms: _620  and  _621
REMARK  267  A    between atoms: _625  and  _626
REMARK  268  A    between atoms: _631  and  _633
REMARK  269  A    between atoms: _633  and  _634
REMARK  270  A    between atoms: _633  and  _636
REMARK  271  A    between atoms: _636  and  _637
REMARK  272  A    between atoms: _637  and  _638
REMARK  273  A    between atoms: _641  and  _643
REMARK  274  A    between atoms: _643  and  _644
REMARK  275  A    between atoms: _643  and  _646
REMARK  276  A    between atoms: _646  and  _647
REMARK  277  A    between atoms: _652  and  _653
REMARK  278  A    between atoms: _655  and  _657
REMARK  279  A    between atoms: _657  and  _658
REMARK  280  A    between atoms: _657  and  _660
REMARK  281  A    between atoms: _663  and  _665
REMARK  282  A    between atoms: _665  and  _666
REMARK  283  A    between atoms: _665  and  _668
REMARK  284  A    between atoms: _668  and  _669
REMARK  285  A    between atoms: _672  and  _674
REMARK  286  A    between atoms: _674  and  _675
REMARK  287  A    between atoms: _674  and  _677
REMARK  288  A    between atoms: _677  and  _678
REMARK  289  A    between atoms: _678  and  _679
REMARK  290  A    between atoms: _682  and  _684
REMARK  291  A    between atoms: _684  and  _685
REMARK  292  A    between atoms: _684  and  _687
REMARK  293  A    between atoms: _687  and  _688
REMARK  294  A    between atoms: _688  and  _689
REMARK  295  A    between atoms: _691  and  _693
REMARK  296  A    between atoms: _693  and  _694
REMARK  297  A    between atoms: _696  and  _698
REMARK  298  A    between atoms: _698  and  _699
REMARK  299  A    between atoms: _698  and  _701
REMARK  300  A    between atoms: _701  and  _702
REMARK  301  A    between atoms: _707  and  _708
REMARK  302  A    between atoms: _711  and  _712
REMARK  303  A    between atoms: _718  and  _719
REMARK  304  A    between atoms: _724  and  _726
REMARK  305  A    between atoms: _726  and  _727
REMARK  306  A    between atoms: _726  and  _729
REMARK  307  A    between atoms: _729  and  _730
REMARK  308  A    between atoms: _736  and  _738
REMARK  309  A    between atoms: _738  and  _739
REMARK  310  A    between atoms: _738  and  _741
REMARK  311  A    between atoms: _741  and  _742
REMARK  312  A    between atoms: _748  and  _750
REMARK  313  A    between atoms: _750  and  _751
REMARK  314  A    between atoms: _750  and  _753
REMARK  315  A    between atoms: _753  and  _754
REMARK  316  A    between atoms: _757  and  _759
REMARK  317  A    between atoms: _759  and  _760
REMARK  318  A    between atoms: _759  and  _762
REMARK  319  A    between atoms: _762  and  _763
REMARK  320  A    between atoms: _768  and  _770
REMARK  321  A    between atoms: _770  and  _771
REMARK  322  A    between atoms: _770  and  _773
REMARK  323  A    between atoms: _773  and  _774
REMARK  324  A    between atoms: _780  and  _782
REMARK  325  A    between atoms: _782  and  _783
REMARK  326  A    between atoms: _782  and  _785
REMARK  327  A    between atoms: _785  and  _786
REMARK  328  A    between atoms: _789  and  _791
REMARK  329  A    between atoms: _791  and  _792
REMARK  330  A    between atoms: _791  and  _794
REMARK  331  A    between atoms: _794  and  _795
REMARK  332  A    between atoms: _800  and  _801
REMARK                            x       y       z     vdW  Elec       q    Type
REMARK                         _______ _______ _______ _____ _____    ______ ____
ROOT
ATOM      1  O   HOH     1     -11.504   9.915  10.413  0.00  0.00    +0.000 OA
ENDROOT
TORSDOF 0
REMARK  Name = ../refined-set-2016/3agl/3agl_pocket.pdb
REMARK  332 active torsions:
REMARK  status: ('A' for Active; 'I' for Inactive)
REMARK    1  A    between atoms: _1  and  _3
REMARK    2  A    between atoms: _3  and  _4
REMARK    3  A    between atoms: _3  and  _6
REMARK    4  A    between atoms: _6  and  _7
REMARK    5  A    between atoms: _10  and  _12
REMARK    6  A    between atoms: _12  and  _13
REMARK    7  A    between atoms: _12  and  _15
REMARK    8  A    between atoms: _15  and  _16
REMARK    9  A    between atoms: _19  and  _21
REMARK   10  A    between atoms: _21  and  _22
REMARK   11  A    between atoms: _24  and  _26
REMARK   12  A    between atoms: _26  and  _27
REMARK   13  A    between atoms: _26  and  _29
REMARK   14  A    between atoms: _29  and  _30
REMARK   15  A    between atoms: _33  and  _35
REMARK   16  A    between atoms: _35  and  _36
REMARK   17  A    between atoms: _38  and  _40
REMARK   18  A    between atoms: _40  and  _41
REMARK   19  A    between atoms: _40  and  _43
REMARK   20  A    between atoms: _43  and  _44
REMARK   21  A    between atoms: _46  and  _48
REMARK   22  A    between atoms: _48  and  _49
REMARK   23  A    between atoms: _48  and  _51
REMARK   24  A    between atoms: _51  and  _52
REMARK   25  A    between atoms: _58  and  _60
REMARK   26  A    between atoms: _60  and  _61
REMARK   27  A    between atoms: _63  and  _65
REMARK   28  A    between atoms: _65  and  _66
REMARK   29  A    between atoms: _65  and  _68
REMARK   30  A    between atoms: _68  and  _69
REMARK   31  A    between atoms: _69  and  _70
REMARK   32  A    between atoms: _70  and  _71
REMARK   33  A    between atoms: _80  and  _82
REMARK   34  A    between atoms: _82  and  _83
REMARK   35  A    between atoms: _82  and  _85
REMARK   36  A    between atoms: _88  and  _90
REMARK   37  A    between atoms: _90  and  _91
REMARK   38  A    between atoms: _90  and  _93
REMARK   39  A    between atoms: _93  and  _94
REMARK   40  A    between atoms: _94  and  _95
REMARK   41  A    between atoms: _97  and  _99
REMARK   42  A    between atoms: _99  and  _100
REMARK   43  A    between atoms: _99  and  _102
REMARK   44  A    between atoms: _102  and  _103
REMARK   45  A    between atoms: _106  and  _108
REMARK   46  A    between atoms: _108  and  _109
REMARK   47  A    between atoms: _108  and  _111
REMARK   48  A    between atoms: _111  and  _112
REMARK   49  A    between atoms: _117  and  _118
REMARK   50  A    between atoms: _120  and  _122
REMARK   51  A    between atoms: _122  and  _123
REMARK   52  A    between atoms: _126  and  _128
REMARK   53  A    between atoms: _128  and  _129
REMARK   54  A    between atoms: _128  and  _131
REMARK   55  A    between atoms: _131  and  _132
REMARK   56  A    between atoms: _132  and  _133
REMARK   57  A    between atoms: _135  and  _137
REMARK   58  A    between atoms: _137  and  _138
REMARK   59  A    between atoms: _137  and  _140
REMARK   60  A    between atoms: _140  and  _141
REMARK   61  A    between atoms: _141  and  _142
REMARK   62  A    between atoms: _142  and  _143
REMARK   63  A    between atoms: _143  and  _144
REMARK   64  A    between atoms: _148  and  _150
REMARK   65  A    between atoms: _150  and  _151
REMARK   66  A    between atoms: _150  and  _153
REMARK   67  A    between atoms: _153  and  _154
REMARK   68  A    between atoms: _157  and  _159
REMARK   69  A    between atoms: _159  and  _160
REMARK   70  A    between atoms: _159  and  _162
REMARK   71  A    between atoms: _162  and  _163
REMARK   72  A    between atoms: _166  and  _168
REMARK   73  A    between atoms: _168  and  _169
REMARK   74  A    between atoms: _168  and  _171
REMARK   75  A    between atoms: _171  and  _172
REMARK   76  A    between atoms: _175  and  _177
REMARK   77  A    between atoms: _177  and  _178
REMARK   78  A    between atoms: _177  and  _180
REMARK   79  A    between atoms: _180  and  _181
REMARK   80  A    between atoms: _181  and  _182
REMARK   81  A    between atoms: _182  and  _183
REMARK   82  A    between atoms: _183  and  _184
REMARK   83  A    between atoms: _188  and  _190
REMARK   84  A    between atoms: _190  and  _191
REMARK   85  A    between atoms: _190  and  _193
REMARK   86  A    between atoms: _196  and  _198
REMARK   87  A    between atoms: _198  and  _199
REMARK   88  A    between atoms: _198  and  _201
REMARK   89  A    between atoms: _201  and  _202
REMARK   90  A    between atoms: _205  and  _207
REMARK   91  A    between atoms: _207  and  _208
REMARK   92  A    between atoms: _207  and  _210
REMARK   93  A    between atoms: _210  and  _211
REMARK   94  A    between atoms: _211  and  _212
REMARK   95  A    between atoms: _217  and  _219
REMARK   96  A    between atoms: _219  and  _220
REMARK   97  A    between atoms: _219  and  _222
REMARK   98  A    between atoms: _222  and  _223
REMARK   99  A    between atoms: _228  and  _230
REMARK  100  A    between atoms: _230  and  _231
REMARK  101  A    between atoms: _230  and  _233
REMARK  102  A    between atoms: _233  and  _234
REMARK  103  A    between atoms: _237  and  _239
REMARK  104  A    between atoms: _239  and  _240
REMARK  105  A    between atoms: _239  and  _242
REMARK  106  A    between atoms: _242  and  _243
REMARK  107  A    between atoms: _243  and  _244
REMARK  108  A    between atoms: _247  and  _249
REMARK  109  A    between atoms: _249  and  _250
REMARK  110  A    between atoms: _249  and  _252
REMARK  111  A    between atoms: _252  and  _253
REMARK  112  A    between atoms: _256  and  _258
REMARK  113  A    between atoms: _258  and  _259
REMARK  114  A    between atoms: _258  and  _261
REMARK  115  A    between atoms: _264  and  _266
REMARK  116  A    between atoms: _266  and  _267
REMARK  117  A    between atoms: _266  and  _269
REMARK  118  A    between atoms: _269  and  _270
REMARK  119  A    between atoms: _270  and  _271
REMARK  120  A    between atoms: _271  and  _272
REMARK  121  A    between atoms: _272  and  _273
REMARK  122  A    between atoms: _277  and  _279
REMARK  123  A    between atoms: _279  and  _280
REMARK  124  A    between atoms: _279  and  _282
REMARK  125  A    between atoms: _282  and  _283
REMARK  126  A    between atoms: _286  and  _288
REMARK  127  A    between atoms: _288  and  _289
REMARK  128  A    between atoms: _288  and  _291
REMARK  129  A    between atoms: _291  and  _292
REMARK  130  A    between atoms: _292  and  _293
REMARK  131  A    between atoms: _296  and  _298
REMARK  132  A    between atoms: _298  and  _299
REMARK  133  A    between atoms: _298  and  _301
REMARK  134  A    between atoms: _301  and  _302
REMARK  135  A    between atoms: _302  and  _303
REMARK  136  A    between atoms: _305  and  _307
REMARK  137  A    between atoms: _307  and  _308
REMARK  138  A    between atoms: _307  and  _310
REMARK  139  A    between atoms: _313  and  _315
REMARK  140  A    between atoms: _315  and  _316
REMARK  141  A    between atoms: _315  and  _318
REMARK  142  A    between atoms: _318  and  _319
REMARK  143  A    between atoms: _319  and  _320
REMARK  144  A    between atoms: _322  and  _324
REMARK  145  A    between atoms: _324  and  _325
REMARK  146  A    between atoms: _324  and  _327
REMARK  147  A    between atoms: _327  and  _328
REMARK  148  A    between atoms: _328  and  _329
REMARK  149  A    between atoms: _332  and  _334
REMARK  150  A    between atoms: _334  and  _335
REMARK  151  A    between atoms: _334  and  _337
REMARK  152  A    between atoms: _337  and  _338
REMARK  153  A    between atoms: _343  and  _344
REMARK  154  A    between atoms: _346  and  _348
REMARK  155  A    between atoms: _348  and  _349
REMARK  156  A    between atoms: _348  and  _351
REMARK  157  A    between atoms: _355  and  _356
REMARK  158  A    between atoms: _361  and  _363
REMARK  159  A    between atoms: _363  and  _364
REMARK  160  A    between atoms: _366  and  _368
REMARK  161  A    between atoms: _368  and  _369
REMARK  162  A    between atoms: _371  and  _373
REMARK  163  A    between atoms: _373  and  _374
REMARK  164  A    between atoms: _373  and  _376
REMARK  165  A    between atoms: _376  and  _377
REMARK  166  A    between atoms: _377  and  _378
REMARK  167  A    between atoms: _381  and  _383
REMARK  168  A    between atoms: _383  and  _384
REMARK  169  A    between atoms: _383  and  _386
REMARK  170  A    between atoms: _386  and  _387
REMARK  171  A    between atoms: _387  and  _388
REMARK  172  A    between atoms: _390  and  _392
REMARK  173  A    between atoms: _392  and  _393
REMARK  174  A    between atoms: _392  and  _395
REMARK  175  A    between atoms: _395  and  _396
REMARK  176  A    between atoms: _402  and  _404
REMARK  177  A    between atoms: _404  and  _405
REMARK  178  A    between atoms: _404  and  _407
REMARK  179  A    between atoms: _407  and  _408
REMARK  180  A    between atoms: _410  and  _412
REMARK  181  A    between atoms: _412  and  _413
REMARK  182  A    between atoms: _412  and  _415
REMARK  183  A    between atoms: _415  and  _416
REMARK  184  A    between atoms: _419  and  _421
REMARK  185  A    between atoms: _421  and  _422
REMARK  186  A    between atoms: _421  and  _424
REMARK  187  A    between atoms: _424  and  _425
REMARK  188  A    between atoms: _425  and  _426
REMARK  189  A    between atoms: _426  and  _427
REMARK  190  A    between atoms: _436  and  _438
REMARK  191  A    between atoms: _438  and  _439
REMARK  192  A    between atoms: _438  and  _441
REMARK  193  A    between atoms: _441  and  _442
REMARK  194  A    between atoms: _447  and  _448
REMARK  195  A    between atoms: _450  and  _452
REMARK  196  A    between atoms: _452  and  _453
REMARK  197  A    between atoms: _452  and  _455
REMARK  198  A    between atoms: _455  and  _456
REMARK  199  A    between atoms: _459  and  _461
REMARK  200  A    between atoms: _461  and  _462
REMARK  201  A    between atoms: _461  and  _464
REMARK  202  A    between atoms: _464  and  _465
REMARK  203  A    between atoms: _468  and  _470
REMARK  204  A    between atoms: _470  and  _471
REMARK  205  A    between atoms: _470  and  _473
REMARK  206  A    between atoms: _473  and  _474
REMARK  207  A    between atoms: _474  and  _475
REMARK  208  A    between atoms: _475  and  _476
REMARK  209  A    between atoms: _476  and  _477
REMARK  210  A    between atoms: _482  and  _483
REMARK  211  A    between atoms: _488  and  _490
REMARK  212  A    between atoms: _490  and  _491
REMARK  213  A    between atoms: _490  and  _493
REMARK  214  A    between atoms: _493  and  _494
REMARK  215  A    between atoms: _494  and  _495
REMARK  216  A    between atoms: _498  and  _500
REMARK  217  A    between atoms: _500  and  _501
REMARK  218  A    between atoms: _500  and  _503
REMARK  219  A    between atoms: _503  and  _504
REMARK  220  A    between atoms: _509  and  _511
REMARK  221  A    between atoms: _511  and  _512
REMARK  222  A    between atoms: _511  and  _514
REMARK  223  A    between atoms: _514  and  _515
REMARK  224  A    between atoms: _518  and  _520
REMARK  225  A    between atoms: _520  and  _521
REMARK  226  A    between atoms: _520  and  _523
REMARK  227  A    between atoms: _523  and  _524
REMARK  228  A    between atoms: _527  and  _529
REMARK  229  A    between atoms: _529  and  _530
REMARK  230  A    between atoms: _529  and  _532
REMARK  231  A    between atoms: _532  and  _533
REMARK  232  A    between atoms: _536  and  _538
REMARK  233  A    between atoms: _538  and  _539
REMARK  234  A    between atoms: _538  and  _541
REMARK  235  A    between atoms: _541  and  _542
REMARK  236  A    between atoms: _542  and  _543
REMARK  237  A    between atoms: _548  and  _550
REMARK  238  A    between atoms: _550  and  _551
REMARK  239  A    between atoms: _550  and  _553
REMARK  240  A    between atoms: _556  and  _558
REMARK  241  A    between atoms: _558  and  _559
REMARK  242  A    between atoms: _558  and  _561
REMARK  243  A    between atoms: _561  and  _562
REMARK  244  A    between atoms: _565  and  _567
REMARK  245  A    between atoms: _567  and  _568
REMARK  246  A    between atoms: _567  and  _570
REMARK  247  A    between atoms: _570  and  _571
REMARK  248  A    between atoms: _574  and  _576
REMARK  249  A    between atoms: _576  and  _577
REMARK  250  A    between atoms: _576  and  _579
REMARK  251  A    between atoms: _579  and  _580
REMARK  252  A    between atoms: _586  and  _588
REMARK  253  A    between atoms: _588  and  _589
REMARK  254  A    between atoms: _591  and  _593
REMARK  255  A    between atoms: _593  and  _594
REMARK  256  A    between atoms: _593  and  _596
REMARK  257  A    between atoms: _596  and  _597
REMARK  258  A    between atoms: _603  and  _605
REMARK  259  A    between atoms: _605  and  _606
REMARK  260  A    between atoms: _605  and  _608
REMARK  261  A    between atoms: _610  and  _612
REMARK  262  A    between atoms: _612  and  _613
REMARK  263  A    between atoms: _615  and  _617
REMARK  264  A    between atoms: _617  and  _618
REMARK  265  A    between atoms: _617  and  _620
REMARK  266  A    between atoms: _620  and  _621
REMARK  267  A    between atoms: _625  and  _626
REMARK  268  A    between atoms: _631  and  _633
REMARK  269  A    between atoms: _633  and  _634
REMARK  270  A    between atoms: _633  and  _636
REMARK  271  A    between atoms: _636  and  _637
REMARK  272  A    between atoms: _637  and  _638
REMARK  273  A    between atoms: _641  and  _643
REMARK  274  A    between atoms: _643  and  _644
REMARK  275  A    between atoms: _643  and  _646
REMARK  276  A    between atoms: _646  and  _647
REMARK  277  A    between atoms: _652  and  _653
REMARK  278  A    between atoms: _655  and  _657
REMARK  279  A    between atoms: _657  and  _658
REMARK  280  A    between atoms: _657  and  _660
REMARK  281  A    between atoms: _663  and  _665
REMARK  282  A    between atoms: _665  and  _666
REMARK  283  A    between atoms: _665  and  _668
REMARK  284  A    between atoms: _668  and  _669
REMARK  285  A    between atoms: _672  and  _674
REMARK  286  A    between atoms: _674  and  _675
REMARK  287  A    between atoms: _674  and  _677
REMARK  288  A    between atoms: _677  and  _678
REMARK  289  A    between atoms: _678  and  _679
REMARK  290  A    between atoms: _682  and  _684
REMARK  291  A    between atoms: _684  and  _685
REMARK  292  A    between atoms: _684  and  _687
REMARK  293  A    between atoms: _687  and  _688
REMARK  294  A    between atoms: _688  and  _689
REMARK  295  A    between atoms: _691  and  _693
REMARK  296  A    between atoms: _693  and  _694
REMARK  297  A    between atoms: _696  and  _698
REMARK  298  A    between atoms: _698  and  _699
REMARK  299  A    between atoms: _698  and  _701
REMARK  300  A    between atoms: _701  and  _702
REMARK  301  A    between atoms: _707  and  _708
REMARK  302  A    between atoms: _711  and  _712
REMARK  303  A    between atoms: _718  and  _719
REMARK  304  A    between atoms: _724  and  _726
REMARK  305  A    between atoms: _726  and  _727
REMARK  306  A    between atoms: _726  and  _729
REMARK  307  A    between atoms: _729  and  _730
REMARK  308  A    between atoms: _736  and  _738
REMARK  309  A    between atoms: _738  and  _739
REMARK  310  A    between atoms: _738  and  _741
REMARK  311  A    between atoms: _741  and  _742
REMARK  312  A    between atoms: _748  and  _750
REMARK  313  A    between atoms: _750  and  _751
REMARK  314  A    between atoms: _750  and  _753
REMARK  315  A    between atoms: _753  and  _754
REMARK  316  A    between atoms: _757  and  _759
REMARK  317  A    between atoms: _759  and  _760
REMARK  318  A    between atoms: _759  and  _762
REMARK  319  A    between atoms: _762  and  _763
REMARK  320  A    between atoms: _768  and  _770
REMARK  321  A    between atoms: _770  and  _771
REMARK  322  A    between atoms: _770  and  _773
REMARK  323  A    between atoms: _773  and  _774
REMARK  324  A    between atoms: _780  and  _782
REMARK  325  A    between atoms: _782  and  _783
REMARK  326  A    between atoms: _782  and  _785
REMARK  327  A    between atoms: _785  and  _786
REMARK  328  A    between atoms: _789  and  _791
REMARK  329  A    between atoms: _791  and  _792
REMARK  330  A    between atoms: _791  and  _794
REMARK  331  A    between atoms: _794  and  _795
REMARK  332  A    between atoms: _800  and  _801
REMARK                            x       y       z     vdW  Elec       q    Type
REMARK                         _______ _______ _______ _____ _____    ______ ____
ROOT
ATOM      1  O   HOH     1     -21.944  -1.712  20.294  0.00  0.00    +0.000 OA
ENDROOT
TORSDOF 0
REMARK  Name = ../refined-set-2016/3agl/3agl_pocket.pdb
REMARK  332 active torsions:
REMARK  status: ('A' for Active; 'I' for Inactive)
REMARK    1  A    between atoms: _1  and  _3
REMARK    2  A    between atoms: _3  and  _4
REMARK    3  A    between atoms: _3  and  _6
REMARK    4  A    between atoms: _6  and  _7
REMARK    5  A    between atoms: _10  and  _12
REMARK    6  A    between atoms: _12  and  _13
REMARK    7  A    between atoms: _12  and  _15
REMARK    8  A    between atoms: _15  and  _16
REMARK    9  A    between atoms: _19  and  _21
REMARK   10  A    between atoms: _21  and  _22
REMARK   11  A    between atoms: _24  and  _26
REMARK   12  A    between atoms: _26  and  _27
REMARK   13  A    between atoms: _26  and  _29
REMARK   14  A    between atoms: _29  and  _30
REMARK   15  A    between atoms: _33  and  _35
REMARK   16  A    between atoms: _35  and  _36
REMARK   17  A    between atoms: _38  and  _40
REMARK   18  A    between atoms: _40  and  _41
REMARK   19  A    between atoms: _40  and  _43
REMARK   20  A    between atoms: _43  and  _44
REMARK   21  A    between atoms: _46  and  _48
REMARK   22  A    between atoms: _48  and  _49
REMARK   23  A    between atoms: _48  and  _51
REMARK   24  A    between atoms: _51  and  _52
REMARK   25  A    between atoms: _58  and  _60
REMARK   26  A    between atoms: _60  and  _61
REMARK   27  A    between atoms: _63  and  _65
REMARK   28  A    between atoms: _65  and  _66
REMARK   29  A    between atoms: _65  and  _68
REMARK   30  A    between atoms: _68  and  _69
REMARK   31  A    between atoms: _69  and  _70
REMARK   32  A    between atoms: _70  and  _71
REMARK   33  A    between atoms: _80  and  _82
REMARK   34  A    between atoms: _82  and  _83
REMARK   35  A    between atoms: _82  and  _85
REMARK   36  A    between atoms: _88  and  _90
REMARK   37  A    between atoms: _90  and  _91
REMARK   38  A    between atoms: _90  and  _93
REMARK   39  A    between atoms: _93  and  _94
REMARK   40  A    between atoms: _94  and  _95
REMARK   41  A    between atoms: _97  and  _99
REMARK   42  A    between atoms: _99  and  _100
REMARK   43  A    between atoms: _99  and  _102
REMARK   44  A    between atoms: _102  and  _103
REMARK   45  A    between atoms: _106  and  _108
REMARK   46  A    between atoms: _108  and  _109
REMARK   47  A    between atoms: _108  and  _111
REMARK   48  A    between atoms: _111  and  _112
REMARK   49  A    between atoms: _117  and  _118
REMARK   50  A    between atoms: _120  and  _122
REMARK   51  A    between atoms: _122  and  _123
REMARK   52  A    between atoms: _126  and  _128
REMARK   53  A    between atoms: _128  and  _129
REMARK   54  A    between atoms: _128  and  _131
REMARK   55  A    between atoms: _131  and  _132
REMARK   56  A    between atoms: _132  and  _133
REMARK   57  A    between atoms: _135  and  _137
REMARK   58  A    between atoms: _137  and  _138
REMARK   59  A    between atoms: _137  and  _140
REMARK   60  A    between atoms: _140  and  _141
REMARK   61  A    between atoms: _141  and  _142
REMARK   62  A    between atoms: _142  and  _143
REMARK   63  A    between atoms: _143  and  _144
REMARK   64  A    between atoms: _148  and  _150
REMARK   65  A    between atoms: _150  and  _151
REMARK   66  A    between atoms: _150  and  _153
REMARK   67  A    between atoms: _153  and  _154
REMARK   68  A    between atoms: _157  and  _159
REMARK   69  A    between atoms: _159  and  _160
REMARK   70  A    between atoms: _159  and  _162
REMARK   71  A    between atoms: _162  and  _163
REMARK   72  A    between atoms: _166  and  _168
REMARK   73  A    between atoms: _168  and  _169
REMARK   74  A    between atoms: _168  and  _171
REMARK   75  A    between atoms: _171  and  _172
REMARK   76  A    between atoms: _175  and  _177
REMARK   77  A    between atoms: _177  and  _178
REMARK   78  A    between atoms: _177  and  _180
REMARK   79  A    between atoms: _180  and  _181
REMARK   80  A    between atoms: _181  and  _182
REMARK   81  A    between atoms: _182  and  _183
REMARK   82  A    between atoms: _183  and  _184
REMARK   83  A    between atoms: _188  and  _190
REMARK   84  A    between atoms: _190  and  _191
REMARK   85  A    between atoms: _190  and  _193
REMARK   86  A    between atoms: _196  and  _198
REMARK   87  A    between atoms: _198  and  _199
REMARK   88  A    between atoms: _198  and  _201
REMARK   89  A    between atoms: _201  and  _202
REMARK   90  A    between atoms: _205  and  _207
REMARK   91  A    between atoms: _207  and  _208
REMARK   92  A    between atoms: _207  and  _210
REMARK   93  A    between atoms: _210  and  _211
REMARK   94  A    between atoms: _211  and  _212
REMARK   95  A    between atoms: _217  and  _219
REMARK   96  A    between atoms: _219  and  _220
REMARK   97  A    between atoms: _219  and  _222
REMARK   98  A    between atoms: _222  and  _223
REMARK   99  A    between atoms: _228  and  _230
REMARK  100  A    between atoms: _230  and  _231
REMARK  101  A    between atoms: _230  and  _233
REMARK  102  A    between atoms: _233  and  _234
REMARK  103  A    between atoms: _237  and  _239
REMARK  104  A    between atoms: _239  and  _240
REMARK  105  A    between atoms: _239  and  _242
REMARK  106  A    between atoms: _242  and  _243
REMARK  107  A    between atoms: _243  and  _244
REMARK  108  A    between atoms: _247  and  _249
REMARK  109  A    between atoms: _249  and  _250
REMARK  110  A    between atoms: _249  and  _252
REMARK  111  A    between atoms: _252  and  _253
REMARK  112  A    between atoms: _256  and  _258
REMARK  113  A    between atoms: _258  and  _259
REMARK  114  A    between atoms: _258  and  _261
REMARK  115  A    between atoms: _264  and  _266
REMARK  116  A    between atoms: _266  and  _267
REMARK  117  A    between atoms: _266  and  _269
REMARK  118  A    between atoms: _269  and  _270
REMARK  119  A    between atoms: _270  and  _271
REMARK  120  A    between atoms: _271  and  _272
REMARK  121  A    between atoms: _272  and  _273
REMARK  122  A    between atoms: _277  and  _279
REMARK  123  A    between atoms: _279  and  _280
REMARK  124  A    between atoms: _279  and  _282
REMARK  125  A    between atoms: _282  and  _283
REMARK  126  A    between atoms: _286  and  _288
REMARK  127  A    between atoms: _288  and  _289
REMARK  128  A    between atoms: _288  and  _291
REMARK  129  A    between atoms: _291  and  _292
REMARK  130  A    between atoms: _292  and  _293
REMARK  131  A    between atoms: _296  and  _298
REMARK  132  A    between atoms: _298  and  _299
REMARK  133  A    between atoms: _298  and  _301
REMARK  134  A    between atoms: _301  and  _302
REMARK  135  A    between atoms: _302  and  _303
REMARK  136  A    between atoms: _305  and  _307
REMARK  137  A    between atoms: _307  and  _308
REMARK  138  A    between atoms: _307  and  _310
REMARK  139  A    between atoms: _313  and  _315
REMARK  140  A    between atoms: _315  and  _316
REMARK  141  A    between atoms: _315  and  _318
REMARK  142  A    between atoms: _318  and  _319
REMARK  143  A    between atoms: _319  and  _320
REMARK  144  A    between atoms: _322  and  _324
REMARK  145  A    between atoms: _324  and  _325
REMARK  146  A    between atoms: _324  and  _327
REMARK  147  A    between atoms: _327  and  _328
REMARK  148  A    between atoms: _328  and  _329
REMARK  149  A    between atoms: _332  and  _334
REMARK  150  A    between atoms: _334  and  _335
REMARK  151  A    between atoms: _334  and  _337
REMARK  152  A    between atoms: _337  and  _338
REMARK  153  A    between atoms: _343  and  _344
REMARK  154  A    between atoms: _346  and  _348
REMARK  155  A    between atoms: _348  and  _349
REMARK  156  A    between atoms: _348  and  _351
REMARK  157  A    between atoms: _355  and  _356
REMARK  158  A    between atoms: _361  and  _363
REMARK  159  A    between atoms: _363  and  _364
REMARK  160  A    between atoms: _366  and  _368
REMARK  161  A    between atoms: _368  and  _369
REMARK  162  A    between atoms: _371  and  _373
REMARK  163  A    between atoms: _373  and  _374
REMARK  164  A    between atoms: _373  and  _376
REMARK  165  A    between atoms: _376  and  _377
REMARK  166  A    between atoms: _377  and  _378
REMARK  167  A    between atoms: _381  and  _383
REMARK  168  A    between atoms: _383  and  _384
REMARK  169  A    between atoms: _383  and  _386
REMARK  170  A    between atoms: _386  and  _387
REMARK  171  A    between atoms: _387  and  _388
REMARK  172  A    between atoms: _390  and  _392
REMARK  173  A    between atoms: _392  and  _393
REMARK  174  A    between atoms: _392  and  _395
REMARK  175  A    between atoms: _395  and  _396
REMARK  176  A    between atoms: _402  and  _404
REMARK  177  A    between atoms: _404  and  _405
REMARK  178  A    between atoms: _404  and  _407
REMARK  179  A    between atoms: _407  and  _408
REMARK  180  A    between atoms: _410  and  _412
REMARK  181  A    between atoms: _412  and  _413
REMARK  182  A    between atoms: _412  and  _415
REMARK  183  A    between atoms: _415  and  _416
REMARK  184  A    between atoms: _419  and  _421
REMARK  185  A    between atoms: _421  and  _422
REMARK  186  A    between atoms: _421  and  _424
REMARK  187  A    between atoms: _424  and  _425
REMARK  188  A    between atoms: _425  and  _426
REMARK  189  A    between atoms: _426  and  _427
REMARK  190  A    between atoms: _436  and  _438
REMARK  191  A    between atoms: _438  and  _439
REMARK  192  A    between atoms: _438  and  _441
REMARK  193  A    between atoms: _441  and  _442
REMARK  194  A    between atoms: _447  and  _448
REMARK  195  A    between atoms: _450  and  _452
REMARK  196  A    between atoms: _452  and  _453
REMARK  197  A    between atoms: _452  and  _455
REMARK  198  A    between atoms: _455  and  _456
REMARK  199  A    between atoms: _459  and  _461
REMARK  200  A    between atoms: _461  and  _462
REMARK  201  A    between atoms: _461  and  _464
REMARK  202  A    between atoms: _464  and  _465
REMARK  203  A    between atoms: _468  and  _470
REMARK  204  A    between atoms: _470  and  _471
REMARK  205  A    between atoms: _470  and  _473
REMARK  206  A    between atoms: _473  and  _474
REMARK  207  A    between atoms: _474  and  _475
REMARK  208  A    between atoms: _475  and  _476
REMARK  209  A    between atoms: _476  and  _477
REMARK  210  A    between atoms: _482  and  _483
REMARK  211  A    between atoms: _488  and  _490
REMARK  212  A    between atoms: _490  and  _491
REMARK  213  A    between atoms: _490  and  _493
REMARK  214  A    between atoms: _493  and  _494
REMARK  215  A    between atoms: _494  and  _495
REMARK  216  A    between atoms: _498  and  _500
REMARK  217  A    between atoms: _500  and  _501
REMARK  218  A    between atoms: _500  and  _503
REMARK  219  A    between atoms: _503  and  _504
REMARK  220  A    between atoms: _509  and  _511
REMARK  221  A    between atoms: _511  and  _512
REMARK  222  A    between atoms: _511  and  _514
REMARK  223  A    between atoms: _514  and  _515
REMARK  224  A    between atoms: _518  and  _520
REMARK  225  A    between atoms: _520  and  _521
REMARK  226  A    between atoms: _520  and  _523
REMARK  227  A    between atoms: _523  and  _524
REMARK  228  A    between atoms: _527  and  _529
REMARK  229  A    between atoms: _529  and  _530
REMARK  230  A    between atoms: _529  and  _532
REMARK  231  A    between atoms: _532  and  _533
REMARK  232  A    between atoms: _536  and  _538
REMARK  233  A    between atoms: _538  and  _539
REMARK  234  A    between atoms: _538  and  _541
REMARK  235  A    between atoms: _541  and  _542
REMARK  236  A    between atoms: _542  and  _543
REMARK  237  A    between atoms: _548  and  _550
REMARK  238  A    between atoms: _550  and  _551
REMARK  239  A    between atoms: _550  and  _553
REMARK  240  A    between atoms: _556  and  _558
REMARK  241  A    between atoms: _558  and  _559
REMARK  242  A    between atoms: _558  and  _561
REMARK  243  A    between atoms: _561  and  _562
REMARK  244  A    between atoms: _565  and  _567
REMARK  245  A    between atoms: _567  and  _568
REMARK  246  A    between atoms: _567  and  _570
REMARK  247  A    between atoms: _570  and  _571
REMARK  248  A    between atoms: _574  and  _576
REMARK  249  A    between atoms: _576  and  _577
REMARK  250  A    between atoms: _576  and  _579
REMARK  251  A    between atoms: _579  and  _580
REMARK  252  A    between atoms: _586  and  _588
REMARK  253  A    between atoms: _588  and  _589
REMARK  254  A    between atoms: _591  and  _593
REMARK  255  A    between atoms: _593  and  _594
REMARK  256  A    between atoms: _593  and  _596
REMARK  257  A    between atoms: _596  and  _597
REMARK  258  A    between atoms: _603  and  _605
REMARK  259  A    between atoms: _605  and  _606
REMARK  260  A    between atoms: _605  and  _608
REMARK  261  A    between atoms: _610  and  _612
REMARK  262  A    between atoms: _612  and  _613
REMARK  263  A    between atoms: _615  and  _617
REMARK  264  A    between atoms: _617  and  _618
REMARK  265  A    between atoms: _617  and  _620
REMARK  266  A    between atoms: _620  and  _621
REMARK  267  A    between atoms: _625  and  _626
REMARK  268  A    between atoms: _631  and  _633
REMARK  269  A    between atoms: _633  and  _634
REMARK  270  A    between atoms: _633  and  _636
REMARK  271  A    between atoms: _636  and  _637
REMARK  272  A    between atoms: _637  and  _638
REMARK  273  A    between atoms: _641  and  _643
REMARK  274  A    between atoms: _643  and  _644
REMARK  275  A    between atoms: _643  and  _646
REMARK  276  A    between atoms: _646  and  _647
REMARK  277  A    between atoms: _652  and  _653
REMARK  278  A    between atoms: _655  and  _657
REMARK  279  A    between atoms: _657  and  _658
REMARK  280  A    between atoms: _657  and  _660
REMARK  281  A    between atoms: _663  and  _665
REMARK  282  A    between atoms: _665  and  _666
REMARK  283  A    between atoms: _665  and  _668
REMARK  284  A    between atoms: _668  and  _669
REMARK  285  A    between atoms: _672  and  _674
REMARK  286  A    between atoms: _674  and  _675
REMARK  287  A    between atoms: _674  and  _677
REMARK  288  A    between atoms: _677  and  _678
REMARK  289  A    between atoms: _678  and  _679
REMARK  290  A    between atoms: _682  and  _684
REMARK  291  A    between atoms: _684  and  _685
REMARK  292  A    between atoms: _684  and  _687
REMARK  293  A    between atoms: _687  and  _688
REMARK  294  A    between atoms: _688  and  _689
REMARK  295  A    between atoms: _691  and  _693
REMARK  296  A    between atoms: _693  and  _694
REMARK  297  A    between atoms: _696  and  _698
REMARK  298  A    between atoms: _698  and  _699
REMARK  299  A    between atoms: _698  and  _701
REMARK  300  A    between atoms: _701  and  _702
REMARK  301  A    between atoms: _707  and  _708
REMARK  302  A    between atoms: _711  and  _712
REMARK  303  A    between atoms: _718  and  _719
REMARK  304  A    between atoms: _724  and  _726
REMARK  305  A    between atoms: _726  and  _727
REMARK  306  A    between atoms: _726  and  _729
REMARK  307  A    between atoms: _729  and  _730
REMARK  308  A    between atoms: _736  and  _738
REMARK  309  A    between atoms: _738  and  _739
REMARK  310  A    between atoms: _738  and  _741
REMARK  311  A    between atoms: _741  and  _742
REMARK  312  A    between atoms: _748  and  _750
REMARK  313  A    between atoms: _750  and  _751
REMARK  314  A    between atoms: _750  and  _753
REMARK  315  A    between atoms: _753  and  _754
REMARK  316  A    between atoms: _757  and  _759
REMARK  317  A    between atoms: _759  and  _760
REMARK  318  A    between atoms: _759  and  _762
REMARK  319  A    between atoms: _762  and  _763
REMARK  320  A    between atoms: _768  and  _770
REMARK  321  A    between atoms: _770  and  _771
REMARK  322  A    between atoms: _770  and  _773
REMARK  323  A    between atoms: _773  and  _774
REMARK  324  A    between atoms: _780  and  _782
REMARK  325  A    between atoms: _782  and  _783
REMARK  326  A    between atoms: _782  and  _785
REMARK  327  A    between atoms: _785  and  _786
REMARK  328  A    between atoms: _789  and  _791
REMARK  329  A    between atoms: _791  and  _792
REMARK  330  A    between atoms: _791  and  _794
REMARK  331  A    between atoms: _794  and  _795
REMARK  332  A    between atoms: _800  and  _801
REMARK                            x       y       z     vdW  Elec       q    Type
REMARK                         _______ _______ _______ _____ _____    ______ ____
ROOT
ATOM      1  O   HOH     1      -9.327  11.964   9.051  0.00  0.00    +0.000 OA
ENDROOT
TORSDOF 0
REMARK  Name = ../refined-set-2016/3agl/3agl_pocket.pdb
REMARK  332 active torsions:
REMARK  status: ('A' for Active; 'I' for Inactive)
REMARK    1  A    between atoms: _1  and  _3
REMARK    2  A    between atoms: _3  and  _4
REMARK    3  A    between atoms: _3  and  _6
REMARK    4  A    between atoms: _6  and  _7
REMARK    5  A    between atoms: _10  and  _12
REMARK    6  A    between atoms: _12  and  _13
REMARK    7  A    between atoms: _12  and  _15
REMARK    8  A    between atoms: _15  and  _16
REMARK    9  A    between atoms: _19  and  _21
REMARK   10  A    between atoms: _21  and  _22
REMARK   11  A    between atoms: _24  and  _26
REMARK   12  A    between atoms: _26  and  _27
REMARK   13  A    between atoms: _26  and  _29
REMARK   14  A    between atoms: _29  and  _30
REMARK   15  A    between atoms: _33  and  _35
REMARK   16  A    between atoms: _35  and  _36
REMARK   17  A    between atoms: _38  and  _40
REMARK   18  A    between atoms: _40  and  _41
REMARK   19  A    between atoms: _40  and  _43
REMARK   20  A    between atoms: _43  and  _44
REMARK   21  A    between atoms: _46  and  _48
REMARK   22  A    between atoms: _48  and  _49
REMARK   23  A    between atoms: _48  and  _51
REMARK   24  A    between atoms: _51  and  _52
REMARK   25  A    between atoms: _58  and  _60
REMARK   26  A    between atoms: _60  and  _61
REMARK   27  A    between atoms: _63  and  _65
REMARK   28  A    between atoms: _65  and  _66
REMARK   29  A    between atoms: _65  and  _68
REMARK   30  A    between atoms: _68  and  _69
REMARK   31  A    between atoms: _69  and  _70
REMARK   32  A    between atoms: _70  and  _71
REMARK   33  A    between atoms: _80  and  _82
REMARK   34  A    between atoms: _82  and  _83
REMARK   35  A    between atoms: _82  and  _85
REMARK   36  A    between atoms: _88  and  _90
REMARK   37  A    between atoms: _90  and  _91
REMARK   38  A    between atoms: _90  and  _93
REMARK   39  A    between atoms: _93  and  _94
REMARK   40  A    between atoms: _94  and  _95
REMARK   41  A    between atoms: _97  and  _99
REMARK   42  A    between atoms: _99  and  _100
REMARK   43  A    between atoms: _99  and  _102
REMARK   44  A    between atoms: _102  and  _103
REMARK   45  A    between atoms: _106  and  _108
REMARK   46  A    between atoms: _108  and  _109
REMARK   47  A    between atoms: _108  and  _111
REMARK   48  A    between atoms: _111  and  _112
REMARK   49  A    between atoms: _117  and  _118
REMARK   50  A    between atoms: _120  and  _122
REMARK   51  A    between atoms: _122  and  _123
REMARK   52  A    between atoms: _126  and  _128
REMARK   53  A    between atoms: _128  and  _129
REMARK   54  A    between atoms: _128  and  _131
REMARK   55  A    between atoms: _131  and  _132
REMARK   56  A    between atoms: _132  and  _133
REMARK   57  A    between atoms: _135  and  _137
REMARK   58  A    between atoms: _137  and  _138
REMARK   59  A    between atoms: _137  and  _140
REMARK   60  A    between atoms: _140  and  _141
REMARK   61  A    between atoms: _141  and  _142
REMARK   62  A    between atoms: _142  and  _143
REMARK   63  A    between atoms: _143  and  _144
REMARK   64  A    between atoms: _148  and  _150
REMARK   65  A    between atoms: _150  and  _151
REMARK   66  A    between atoms: _150  and  _153
REMARK   67  A    between atoms: _153  and  _154
REMARK   68  A    between atoms: _157  and  _159
REMARK   69  A    between atoms: _159  and  _160
REMARK   70  A    between atoms: _159  and  _162
REMARK   71  A    between atoms: _162  and  _163
REMARK   72  A    between atoms: _166  and  _168
REMARK   73  A    between atoms: _168  and  _169
REMARK   74  A    between atoms: _168  and  _171
REMARK   75  A    between atoms: _171  and  _172
REMARK   76  A    between atoms: _175  and  _177
REMARK   77  A    between atoms: _177  and  _178
REMARK   78  A    between atoms: _177  and  _180
REMARK   79  A    between atoms: _180  and  _181
REMARK   80  A    between atoms: _181  and  _182
REMARK   81  A    between atoms: _182  and  _183
REMARK   82  A    between atoms: _183  and  _184
REMARK   83  A    between atoms: _188  and  _190
REMARK   84  A    between atoms: _190  and  _191
REMARK   85  A    between atoms: _190  and  _193
REMARK   86  A    between atoms: _196  and  _198
REMARK   87  A    between atoms: _198  and  _199
REMARK   88  A    between atoms: _198  and  _201
REMARK   89  A    between atoms: _201  and  _202
REMARK   90  A    between atoms: _205  and  _207
REMARK   91  A    between atoms: _207  and  _208
REMARK   92  A    between atoms: _207  and  _210
REMARK   93  A    between atoms: _210  and  _211
REMARK   94  A    between atoms: _211  and  _212
REMARK   95  A    between atoms: _217  and  _219
REMARK   96  A    between atoms: _219  and  _220
REMARK   97  A    between atoms: _219  and  _222
REMARK   98  A    between atoms: _222  and  _223
REMARK   99  A    between atoms: _228  and  _230
REMARK  100  A    between atoms: _230  and  _231
REMARK  101  A    between atoms: _230  and  _233
REMARK  102  A    between atoms: _233  and  _234
REMARK  103  A    between atoms: _237  and  _239
REMARK  104  A    between atoms: _239  and  _240
REMARK  105  A    between atoms: _239  and  _242
REMARK  106  A    between atoms: _242  and  _243
REMARK  107  A    between atoms: _243  and  _244
REMARK  108  A    between atoms: _247  and  _249
REMARK  109  A    between atoms: _249  and  _250
REMARK  110  A    between atoms: _249  and  _252
REMARK  111  A    between atoms: _252  and  _253
REMARK  112  A    between atoms: _256  and  _258
REMARK  113  A    between atoms: _258  and  _259
REMARK  114  A    between atoms: _258  and  _261
REMARK  115  A    between atoms: _264  and  _266
REMARK  116  A    between atoms: _266  and  _267
REMARK  117  A    between atoms: _266  and  _269
REMARK  118  A    between atoms: _269  and  _270
REMARK  119  A    between atoms: _270  and  _271
REMARK  120  A    between atoms: _271  and  _272
REMARK  121  A    between atoms: _272  and  _273
REMARK  122  A    between atoms: _277  and  _279
REMARK  123  A    between atoms: _279  and  _280
REMARK  124  A    between atoms: _279  and  _282
REMARK  125  A    between atoms: _282  and  _283
REMARK  126  A    between atoms: _286  and  _288
REMARK  127  A    between atoms: _288  and  _289
REMARK  128  A    between atoms: _288  and  _291
REMARK  129  A    between atoms: _291  and  _292
REMARK  130  A    between atoms: _292  and  _293
REMARK  131  A    between atoms: _296  and  _298
REMARK  132  A    between atoms: _298  and  _299
REMARK  133  A    between atoms: _298  and  _301
REMARK  134  A    between atoms: _301  and  _302
REMARK  135  A    between atoms: _302  and  _303
REMARK  136  A    between atoms: _305  and  _307
REMARK  137  A    between atoms: _307  and  _308
REMARK  138  A    between atoms: _307  and  _310
REMARK  139  A    between atoms: _313  and  _315
REMARK  140  A    between atoms: _315  and  _316
REMARK  141  A    between atoms: _315  and  _318
REMARK  142  A    between atoms: _318  and  _319
REMARK  143  A    between atoms: _319  and  _320
REMARK  144  A    between atoms: _322  and  _324
REMARK  145  A    between atoms: _324  and  _325
REMARK  146  A    between atoms: _324  and  _327
REMARK  147  A    between atoms: _327  and  _328
REMARK  148  A    between atoms: _328  and  _329
REMARK  149  A    between atoms: _332  and  _334
REMARK  150  A    between atoms: _334  and  _335
REMARK  151  A    between atoms: _334  and  _337
REMARK  152  A    between atoms: _337  and  _338
REMARK  153  A    between atoms: _343  and  _344
REMARK  154  A    between atoms: _346  and  _348
REMARK  155  A    between atoms: _348  and  _349
REMARK  156  A    between atoms: _348  and  _351
REMARK  157  A    between atoms: _355  and  _356
REMARK  158  A    between atoms: _361  and  _363
REMARK  159  A    between atoms: _363  and  _364
REMARK  160  A    between atoms: _366  and  _368
REMARK  161  A    between atoms: _368  and  _369
REMARK  162  A    between atoms: _371  and  _373
REMARK  163  A    between atoms: _373  and  _374
REMARK  164  A    between atoms: _373  and  _376
REMARK  165  A    between atoms: _376  and  _377
REMARK  166  A    between atoms: _377  and  _378
REMARK  167  A    between atoms: _381  and  _383
REMARK  168  A    between atoms: _383  and  _384
REMARK  169  A    between atoms: _383  and  _386
REMARK  170  A    between atoms: _386  and  _387
REMARK  171  A    between atoms: _387  and  _388
REMARK  172  A    between atoms: _390  and  _392
REMARK  173  A    between atoms: _392  and  _393
REMARK  174  A    between atoms: _392  and  _395
REMARK  175  A    between atoms: _395  and  _396
REMARK  176  A    between atoms: _402  and  _404
REMARK  177  A    between atoms: _404  and  _405
REMARK  178  A    between atoms: _404  and  _407
REMARK  179  A    between atoms: _407  and  _408
REMARK  180  A    between atoms: _410  and  _412
REMARK  181  A    between atoms: _412  and  _413
REMARK  182  A    between atoms: _412  and  _415
REMARK  183  A    between atoms: _415  and  _416
REMARK  184  A    between atoms: _419  and  _421
REMARK  185  A    between atoms: _421  and  _422
REMARK  186  A    between atoms: _421  and  _424
REMARK  187  A    between atoms: _424  and  _425
REMARK  188  A    between atoms: _425  and  _426
REMARK  189  A    between atoms: _426  and  _427
REMARK  190  A    between atoms: _436  and  _438
REMARK  191  A    between atoms: _438  and  _439
REMARK  192  A    between atoms: _438  and  _441
REMARK  193  A    between atoms: _441  and  _442
REMARK  194  A    between atoms: _447  and  _448
REMARK  195  A    between atoms: _450  and  _452
REMARK  196  A    between atoms: _452  and  _453
REMARK  197  A    between atoms: _452  and  _455
REMARK  198  A    between atoms: _455  and  _456
REMARK  199  A    between atoms: _459  and  _461
REMARK  200  A    between atoms: _461  and  _462
REMARK  201  A    between atoms: _461  and  _464
REMARK  202  A    between atoms: _464  and  _465
REMARK  203  A    between atoms: _468  and  _470
REMARK  204  A    between atoms: _470  and  _471
REMARK  205  A    between atoms: _470  and  _473
REMARK  206  A    between atoms: _473  and  _474
REMARK  207  A    between atoms: _474  and  _475
REMARK  208  A    between atoms: _475  and  _476
REMARK  209  A    between atoms: _476  and  _477
REMARK  210  A    between atoms: _482  and  _483
REMARK  211  A    between atoms: _488  and  _490
REMARK  212  A    between atoms: _490  and  _491
REMARK  213  A    between atoms: _490  and  _493
REMARK  214  A    between atoms: _493  and  _494
REMARK  215  A    between atoms: _494  and  _495
REMARK  216  A    between atoms: _498  and  _500
REMARK  217  A    between atoms: _500  and  _501
REMARK  218  A    between atoms: _500  and  _503
REMARK  219  A    between atoms: _503  and  _504
REMARK  220  A    between atoms: _509  and  _511
REMARK  221  A    between atoms: _511  and  _512
REMARK  222  A    between atoms: _511  and  _514
REMARK  223  A    between atoms: _514  and  _515
REMARK  224  A    between atoms: _518  and  _520
REMARK  225  A    between atoms: _520  and  _521
REMARK  226  A    between atoms: _520  and  _523
REMARK  227  A    between atoms: _523  and  _524
REMARK  228  A    between atoms: _527  and  _529
REMARK  229  A    between atoms: _529  and  _530
REMARK  230  A    between atoms: _529  and  _532
REMARK  231  A    between atoms: _532  and  _533
REMARK  232  A    between atoms: _536  and  _538
REMARK  233  A    between atoms: _538  and  _539
REMARK  234  A    between atoms: _538  and  _541
REMARK  235  A    between atoms: _541  and  _542
REMARK  236  A    between atoms: _542  and  _543
REMARK  237  A    between atoms: _548  and  _550
REMARK  238  A    between atoms: _550  and  _551
REMARK  239  A    between atoms: _550  and  _553
REMARK  240  A    between atoms: _556  and  _558
REMARK  241  A    between atoms: _558  and  _559
REMARK  242  A    between atoms: _558  and  _561
REMARK  243  A    between atoms: _561  and  _562
REMARK  244  A    between atoms: _565  and  _567
REMARK  245  A    between atoms: _567  and  _568
REMARK  246  A    between atoms: _567  and  _570
REMARK  247  A    between atoms: _570  and  _571
REMARK  248  A    between atoms: _574  and  _576
REMARK  249  A    between atoms: _576  and  _577
REMARK  250  A    between atoms: _576  and  _579
REMARK  251  A    between atoms: _579  and  _580
REMARK  252  A    between atoms: _586  and  _588
REMARK  253  A    between atoms: _588  and  _589
REMARK  254  A    between atoms: _591  and  _593
REMARK  255  A    between atoms: _593  and  _594
REMARK  256  A    between atoms: _593  and  _596
REMARK  257  A    between atoms: _596  and  _597
REMARK  258  A    between atoms: _603  and  _605
REMARK  259  A    between atoms: _605  and  _606
REMARK  260  A    between atoms: _605  and  _608
REMARK  261  A    between atoms: _610  and  _612
REMARK  262  A    between atoms: _612  and  _613
REMARK  263  A    between atoms: _615  and  _617
REMARK  264  A    between atoms: _617  and  _618
REMARK  265  A    between atoms: _617  and  _620
REMARK  266  A    between atoms: _620  and  _621
REMARK  267  A    between atoms: _625  and  _626
REMARK  268  A    between atoms: _631  and  _633
REMARK  269  A    between atoms: _633  and  _634
REMARK  270  A    between atoms: _633  and  _636
REMARK  271  A    between atoms: _636  and  _637
REMARK  272  A    between atoms: _637  and  _638
REMARK  273  A    between atoms: _641  and  _643
REMARK  274  A    between atoms: _643  and  _644
REMARK  275  A    between atoms: _643  and  _646
REMARK  276  A    between atoms: _646  and  _647
REMARK  277  A    between atoms: _652  and  _653
REMARK  278  A    between atoms: _655  and  _657
REMARK  279  A    between atoms: _657  and  _658
REMARK  280  A    between atoms: _657  and  _660
REMARK  281  A    between atoms: _663  and  _665
REMARK  282  A    between atoms: _665  and  _666
REMARK  283  A    between atoms: _665  and  _668
REMARK  284  A    between atoms: _668  and  _669
REMARK  285  A    between atoms: _672  and  _674
REMARK  286  A    between atoms: _674  and  _675
REMARK  287  A    between atoms: _674  and  _677
REMARK  288  A    between atoms: _677  and  _678
REMARK  289  A    between atoms: _678  and  _679
REMARK  290  A    between atoms: _682  and  _684
REMARK  291  A    between atoms: _684  and  _685
REMARK  292  A    between atoms: _684  and  _687
REMARK  293  A    between atoms: _687  and  _688
REMARK  294  A    between atoms: _688  and  _689
REMARK  295  A    between atoms: _691  and  _693
REMARK  296  A    between atoms: _693  and  _694
REMARK  297  A    between atoms: _696  and  _698
REMARK  298  A    between atoms: _698  and  _699
REMARK  299  A    between atoms: _698  and  _701
REMARK  300  A    between atoms: _701  and  _702
REMARK  301  A    between atoms: _707  and  _708
REMARK  302  A    between atoms: _711  and  _712
REMARK  303  A    between atoms: _718  and  _719
REMARK  304  A    between atoms: _724  and  _726
REMARK  305  A    between atoms: _726  and  _727
REMARK  306  A    between atoms: _726  and  _729
REMARK  307  A    between atoms: _729  and  _730
REMARK  308  A    between atoms: _736  and  _738
REMARK  309  A    between atoms: _738  and  _739
REMARK  310  A    between atoms: _738  and  _741
REMARK  311  A    between atoms: _741  and  _742
REMARK  312  A    between atoms: _748  and  _750
REMARK  313  A    between atoms: _750  and  _751
REMARK  314  A    between atoms: _750  and  _753
REMARK  315  A    between atoms: _753  and  _754
REMARK  316  A    between atoms: _757  and  _759
REMARK  317  A    between atoms: _759  and  _760
REMARK  318  A    between atoms: _759  and  _762
REMARK  319  A    between atoms: _762  and  _763
REMARK  320  A    between atoms: _768  and  _770
REMARK  321  A    between atoms: _770  and  _771
REMARK  322  A    between atoms: _770  and  _773
REMARK  323  A    between atoms: _773  and  _774
REMARK  324  A    between atoms: _780  and  _782
REMARK  325  A    between atoms: _782  and  _783
REMARK  326  A    between atoms: _782  and  _785
REMARK  327  A    between atoms: _785  and  _786
REMARK  328  A    between atoms: _789  and  _791
REMARK  329  A    between atoms: _791  and  _792
REMARK  330  A    between atoms: _791  and  _794
REMARK  331  A    between atoms: _794  and  _795
REMARK  332  A    between atoms: _800  and  _801
REMARK                            x       y       z     vdW  Elec       q    Type
REMARK                         _______ _______ _______ _____ _____    ______ ____
ROOT
ATOM      1  O   HOH     1     -25.003   1.888   5.754  0.00  0.00    +0.000 OA
ENDROOT
TORSDOF 0
REMARK  Name = ../refined-set-2016/3agl/3agl_pocket.pdb
REMARK  332 active torsions:
REMARK  status: ('A' for Active; 'I' for Inactive)
REMARK    1  A    between atoms: _1  and  _3
REMARK    2  A    between atoms: _3  and  _4
REMARK    3  A    between atoms: _3  and  _6
REMARK    4  A    between atoms: _6  and  _7
REMARK    5  A    between atoms: _10  and  _12
REMARK    6  A    between atoms: _12  and  _13
REMARK    7  A    between atoms: _12  and  _15
REMARK    8  A    between atoms: _15  and  _16
REMARK    9  A    between atoms: _19  and  _21
REMARK   10  A    between atoms: _21  and  _22
REMARK   11  A    between atoms: _24  and  _26
REMARK   12  A    between atoms: _26  and  _27
REMARK   13  A    between atoms: _26  and  _29
REMARK   14  A    between atoms: _29  and  _30
REMARK   15  A    between atoms: _33  and  _35
REMARK   16  A    between atoms: _35  and  _36
REMARK   17  A    between atoms: _38  and  _40
REMARK   18  A    between atoms: _40  and  _41
REMARK   19  A    between atoms: _40  and  _43
REMARK   20  A    between atoms: _43  and  _44
REMARK   21  A    between atoms: _46  and  _48
REMARK   22  A    between atoms: _48  and  _49
REMARK   23  A    between atoms: _48  and  _51
REMARK   24  A    between atoms: _51  and  _52
REMARK   25  A    between atoms: _58  and  _60
REMARK   26  A    between atoms: _60  and  _61
REMARK   27  A    between atoms: _63  and  _65
REMARK   28  A    between atoms: _65  and  _66
REMARK   29  A    between atoms: _65  and  _68
REMARK   30  A    between atoms: _68  and  _69
REMARK   31  A    between atoms: _69  and  _70
REMARK   32  A    between atoms: _70  and  _71
REMARK   33  A    between atoms: _80  and  _82
REMARK   34  A    between atoms: _82  and  _83
REMARK   35  A    between atoms: _82  and  _85
REMARK   36  A    between atoms: _88  and  _90
REMARK   37  A    between atoms: _90  and  _91
REMARK   38  A    between atoms: _90  and  _93
REMARK   39  A    between atoms: _93  and  _94
REMARK   40  A    between atoms: _94  and  _95
REMARK   41  A    between atoms: _97  and  _99
REMARK   42  A    between atoms: _99  and  _100
REMARK   43  A    between atoms: _99  and  _102
REMARK   44  A    between atoms: _102  and  _103
REMARK   45  A    between atoms: _106  and  _108
REMARK   46  A    between atoms: _108  and  _109
REMARK   47  A    between atoms: _108  and  _111
REMARK   48  A    between atoms: _111  and  _112
REMARK   49  A    between atoms: _117  and  _118
REMARK   50  A    between atoms: _120  and  _122
REMARK   51  A    between atoms: _122  and  _123
REMARK   52  A    between atoms: _126  and  _128
REMARK   53  A    between atoms: _128  and  _129
REMARK   54  A    between atoms: _128  and  _131
REMARK   55  A    between atoms: _131  and  _132
REMARK   56  A    between atoms: _132  and  _133
REMARK   57  A    between atoms: _135  and  _137
REMARK   58  A    between atoms: _137  and  _138
REMARK   59  A    between atoms: _137  and  _140
REMARK   60  A    between atoms: _140  and  _141
REMARK   61  A    between atoms: _141  and  _142
REMARK   62  A    between atoms: _142  and  _143
REMARK   63  A    between atoms: _143  and  _144
REMARK   64  A    between atoms: _148  and  _150
REMARK   65  A    between atoms: _150  and  _151
REMARK   66  A    between atoms: _150  and  _153
REMARK   67  A    between atoms: _153  and  _154
REMARK   68  A    between atoms: _157  and  _159
REMARK   69  A    between atoms: _159  and  _160
REMARK   70  A    between atoms: _159  and  _162
REMARK   71  A    between atoms: _162  and  _163
REMARK   72  A    between atoms: _166  and  _168
REMARK   73  A    between atoms: _168  and  _169
REMARK   74  A    between atoms: _168  and  _171
REMARK   75  A    between atoms: _171  and  _172
REMARK   76  A    between atoms: _175  and  _177
REMARK   77  A    between atoms: _177  and  _178
REMARK   78  A    between atoms: _177  and  _180
REMARK   79  A    between atoms: _180  and  _181
REMARK   80  A    between atoms: _181  and  _182
REMARK   81  A    between atoms: _182  and  _183
REMARK   82  A    between atoms: _183  and  _184
REMARK   83  A    between atoms: _188  and  _190
REMARK   84  A    between atoms: _190  and  _191
REMARK   85  A    between atoms: _190  and  _193
REMARK   86  A    between atoms: _196  and  _198
REMARK   87  A    between atoms: _198  and  _199
REMARK   88  A    between atoms: _198  and  _201
REMARK   89  A    between atoms: _201  and  _202
REMARK   90  A    between atoms: _205  and  _207
REMARK   91  A    between atoms: _207  and  _208
REMARK   92  A    between atoms: _207  and  _210
REMARK   93  A    between atoms: _210  and  _211
REMARK   94  A    between atoms: _211  and  _212
REMARK   95  A    between atoms: _217  and  _219
REMARK   96  A    between atoms: _219  and  _220
REMARK   97  A    between atoms: _219  and  _222
REMARK   98  A    between atoms: _222  and  _223
REMARK   99  A    between atoms: _228  and  _230
REMARK  100  A    between atoms: _230  and  _231
REMARK  101  A    between atoms: _230  and  _233
REMARK  102  A    between atoms: _233  and  _234
REMARK  103  A    between atoms: _237  and  _239
REMARK  104  A    between atoms: _239  and  _240
REMARK  105  A    between atoms: _239  and  _242
REMARK  106  A    between atoms: _242  and  _243
REMARK  107  A    between atoms: _243  and  _244
REMARK  108  A    between atoms: _247  and  _249
REMARK  109  A    between atoms: _249  and  _250
REMARK  110  A    between atoms: _249  and  _252
REMARK  111  A    between atoms: _252  and  _253
REMARK  112  A    between atoms: _256  and  _258
REMARK  113  A    between atoms: _258  and  _259
REMARK  114  A    between atoms: _258  and  _261
REMARK  115  A    between atoms: _264  and  _266
REMARK  116  A    between atoms: _266  and  _267
REMARK  117  A    between atoms: _266  and  _269
REMARK  118  A    between atoms: _269  and  _270
REMARK  119  A    between atoms: _270  and  _271
REMARK  120  A    between atoms: _271  and  _272
REMARK  121  A    between atoms: _272  and  _273
REMARK  122  A    between atoms: _277  and  _279
REMARK  123  A    between atoms: _279  and  _280
REMARK  124  A    between atoms: _279  and  _282
REMARK  125  A    between atoms: _282  and  _283
REMARK  126  A    between atoms: _286  and  _288
REMARK  127  A    between atoms: _288  and  _289
REMARK  128  A    between atoms: _288  and  _291
REMARK  129  A    between atoms: _291  and  _292
REMARK  130  A    between atoms: _292  and  _293
REMARK  131  A    between atoms: _296  and  _298
REMARK  132  A    between atoms: _298  and  _299
REMARK  133  A    between atoms: _298  and  _301
REMARK  134  A    between atoms: _301  and  _302
REMARK  135  A    between atoms: _302  and  _303
REMARK  136  A    between atoms: _305  and  _307
REMARK  137  A    between atoms: _307  and  _308
REMARK  138  A    between atoms: _307  and  _310
REMARK  139  A    between atoms: _313  and  _315
REMARK  140  A    between atoms: _315  and  _316
REMARK  141  A    between atoms: _315  and  _318
REMARK  142  A    between atoms: _318  and  _319
REMARK  143  A    between atoms: _319  and  _320
REMARK  144  A    between atoms: _322  and  _324
REMARK  145  A    between atoms: _324  and  _325
REMARK  146  A    between atoms: _324  and  _327
REMARK  147  A    between atoms: _327  and  _328
REMARK  148  A    between atoms: _328  and  _329
REMARK  149  A    between atoms: _332  and  _334
REMARK  150  A    between atoms: _334  and  _335
REMARK  151  A    between atoms: _334  and  _337
REMARK  152  A    between atoms: _337  and  _338
REMARK  153  A    between atoms: _343  and  _344
REMARK  154  A    between atoms: _346  and  _348
REMARK  155  A    between atoms: _348  and  _349
REMARK  156  A    between atoms: _348  and  _351
REMARK  157  A    between atoms: _355  and  _356
REMARK  158  A    between atoms: _361  and  _363
REMARK  159  A    between atoms: _363  and  _364
REMARK  160  A    between atoms: _366  and  _368
REMARK  161  A    between atoms: _368  and  _369
REMARK  162  A    between atoms: _371  and  _373
REMARK  163  A    between atoms: _373  and  _374
REMARK  164  A    between atoms: _373  and  _376
REMARK  165  A    between atoms: _376  and  _377
REMARK  166  A    between atoms: _377  and  _378
REMARK  167  A    between atoms: _381  and  _383
REMARK  168  A    between atoms: _383  and  _384
REMARK  169  A    between atoms: _383  and  _386
REMARK  170  A    between atoms: _386  and  _387
REMARK  171  A    between atoms: _387  and  _388
REMARK  172  A    between atoms: _390  and  _392
REMARK  173  A    between atoms: _392  and  _393
REMARK  174  A    between atoms: _392  and  _395
REMARK  175  A    between atoms: _395  and  _396
REMARK  176  A    between atoms: _402  and  _404
REMARK  177  A    between atoms: _404  and  _405
REMARK  178  A    between atoms: _404  and  _407
REMARK  179  A    between atoms: _407  and  _408
REMARK  180  A    between atoms: _410  and  _412
REMARK  181  A    between atoms: _412  and  _413
REMARK  182  A    between atoms: _412  and  _415
REMARK  183  A    between atoms: _415  and  _416
REMARK  184  A    between atoms: _419  and  _421
REMARK  185  A    between atoms: _421  and  _422
REMARK  186  A    between atoms: _421  and  _424
REMARK  187  A    between atoms: _424  and  _425
REMARK  188  A    between atoms: _425  and  _426
REMARK  189  A    between atoms: _426  and  _427
REMARK  190  A    between atoms: _436  and  _438
REMARK  191  A    between atoms: _438  and  _439
REMARK  192  A    between atoms: _438  and  _441
REMARK  193  A    between atoms: _441  and  _442
REMARK  194  A    between atoms: _447  and  _448
REMARK  195  A    between atoms: _450  and  _452
REMARK  196  A    between atoms: _452  and  _453
REMARK  197  A    between atoms: _452  and  _455
REMARK  198  A    between atoms: _455  and  _456
REMARK  199  A    between atoms: _459  and  _461
REMARK  200  A    between atoms: _461  and  _462
REMARK  201  A    between atoms: _461  and  _464
REMARK  202  A    between atoms: _464  and  _465
REMARK  203  A    between atoms: _468  and  _470
REMARK  204  A    between atoms: _470  and  _471
REMARK  205  A    between atoms: _470  and  _473
REMARK  206  A    between atoms: _473  and  _474
REMARK  207  A    between atoms: _474  and  _475
REMARK  208  A    between atoms: _475  and  _476
REMARK  209  A    between atoms: _476  and  _477
REMARK  210  A    between atoms: _482  and  _483
REMARK  211  A    between atoms: _488  and  _490
REMARK  212  A    between atoms: _490  and  _491
REMARK  213  A    between atoms: _490  and  _493
REMARK  214  A    between atoms: _493  and  _494
REMARK  215  A    between atoms: _494  and  _495
REMARK  216  A    between atoms: _498  and  _500
REMARK  217  A    between atoms: _500  and  _501
REMARK  218  A    between atoms: _500  and  _503
REMARK  219  A    between atoms: _503  and  _504
REMARK  220  A    between atoms: _509  and  _511
REMARK  221  A    between atoms: _511  and  _512
REMARK  222  A    between atoms: _511  and  _514
REMARK  223  A    between atoms: _514  and  _515
REMARK  224  A    between atoms: _518  and  _520
REMARK  225  A    between atoms: _520  and  _521
REMARK  226  A    between atoms: _520  and  _523
REMARK  227  A    between atoms: _523  and  _524
REMARK  228  A    between atoms: _527  and  _529
REMARK  229  A    between atoms: _529  and  _530
REMARK  230  A    between atoms: _529  and  _532
REMARK  231  A    between atoms: _532  and  _533
REMARK  232  A    between atoms: _536  and  _538
REMARK  233  A    between atoms: _538  and  _539
REMARK  234  A    between atoms: _538  and  _541
REMARK  235  A    between atoms: _541  and  _542
REMARK  236  A    between atoms: _542  and  _543
REMARK  237  A    between atoms: _548  and  _550
REMARK  238  A    between atoms: _550  and  _551
REMARK  239  A    between atoms: _550  and  _553
REMARK  240  A    between atoms: _556  and  _558
REMARK  241  A    between atoms: _558  and  _559
REMARK  242  A    between atoms: _558  and  _561
REMARK  243  A    between atoms: _561  and  _562
REMARK  244  A    between atoms: _565  and  _567
REMARK  245  A    between atoms: _567  and  _568
REMARK  246  A    between atoms: _567  and  _570
REMARK  247  A    between atoms: _570  and  _571
REMARK  248  A    between atoms: _574  and  _576
REMARK  249  A    between atoms: _576  and  _577
REMARK  250  A    between atoms: _576  and  _579
REMARK  251  A    between atoms: _579  and  _580
REMARK  252  A    between atoms: _586  and  _588
REMARK  253  A    between atoms: _588  and  _589
REMARK  254  A    between atoms: _591  and  _593
REMARK  255  A    between atoms: _593  and  _594
REMARK  256  A    between atoms: _593  and  _596
REMARK  257  A    between atoms: _596  and  _597
REMARK  258  A    between atoms: _603  and  _605
REMARK  259  A    between atoms: _605  and  _606
REMARK  260  A    between atoms: _605  and  _608
REMARK  261  A    between atoms: _610  and  _612
REMARK  262  A    between atoms: _612  and  _613
REMARK  263  A    between atoms: _615  and  _617
REMARK  264  A    between atoms: _617  and  _618
REMARK  265  A    between atoms: _617  and  _620
REMARK  266  A    between atoms: _620  and  _621
REMARK  267  A    between atoms: _625  and  _626
REMARK  268  A    between atoms: _631  and  _633
REMARK  269  A    between atoms: _633  and  _634
REMARK  270  A    between atoms: _633  and  _636
REMARK  271  A    between atoms: _636  and  _637
REMARK  272  A    between atoms: _637  and  _638
REMARK  273  A    between atoms: _641  and  _643
REMARK  274  A    between atoms: _643  and  _644
REMARK  275  A    between atoms: _643  and  _646
REMARK  276  A    between atoms: _646  and  _647
REMARK  277  A    between atoms: _652  and  _653
REMARK  278  A    between atoms: _655  and  _657
REMARK  279  A    between atoms: _657  and  _658
REMARK  280  A    between atoms: _657  and  _660
REMARK  281  A    between atoms: _663  and  _665
REMARK  282  A    between atoms: _665  and  _666
REMARK  283  A    between atoms: _665  and  _668
REMARK  284  A    between atoms: _668  and  _669
REMARK  285  A    between atoms: _672  and  _674
REMARK  286  A    between atoms: _674  and  _675
REMARK  287  A    between atoms: _674  and  _677
REMARK  288  A    between atoms: _677  and  _678
REMARK  289  A    between atoms: _678  and  _679
REMARK  290  A    between atoms: _682  and  _684
REMARK  291  A    between atoms: _684  and  _685
REMARK  292  A    between atoms: _684  and  _687
REMARK  293  A    between atoms: _687  and  _688
REMARK  294  A    between atoms: _688  and  _689
REMARK  295  A    between atoms: _691  and  _693
REMARK  296  A    between atoms: _693  and  _694
REMARK  297  A    between atoms: _696  and  _698
REMARK  298  A    between atoms: _698  and  _699
REMARK  299  A    between atoms: _698  and  _701
REMARK  300  A    between atoms: _701  and  _702
REMARK  301  A    between atoms: _707  and  _708
REMARK  302  A    between atoms: _711  and  _712
REMARK  303  A    between atoms: _718  and  _719
REMARK  304  A    between atoms: _724  and  _726
REMARK  305  A    between atoms: _726  and  _727
REMARK  306  A    between atoms: _726  and  _729
REMARK  307  A    between atoms: _729  and  _730
REMARK  308  A    between atoms: _736  and  _738
REMARK  309  A    between atoms: _738  and  _739
REMARK  310  A    between atoms: _738  and  _741
REMARK  311  A    between atoms: _741  and  _742
REMARK  312  A    between atoms: _748  and  _750
REMARK  313  A    between atoms: _750  and  _751
REMARK  314  A    between atoms: _750  and  _753
REMARK  315  A    between atoms: _753  and  _754
REMARK  316  A    between atoms: _757  and  _759
REMARK  317  A    between atoms: _759  and  _760
REMARK  318  A    between atoms: _759  and  _762
REMARK  319  A    between atoms: _762  and  _763
REMARK  320  A    between atoms: _768  and  _770
REMARK  321  A    between atoms: _770  and  _771
REMARK  322  A    between atoms: _770  and  _773
REMARK  323  A    between atoms: _773  and  _774
REMARK  324  A    between atoms: _780  and  _782
REMARK  325  A    between atoms: _782  and  _783
REMARK  326  A    between atoms: _782  and  _785
REMARK  327  A    between atoms: _785  and  _786
REMARK  328  A    between atoms: _789  and  _791
REMARK  329  A    between atoms: _791  and  _792
REMARK  330  A    between atoms: _791  and  _794
REMARK  331  A    between atoms: _794  and  _795
REMARK  332  A    between atoms: _800  and  _801
REMARK                            x       y       z     vdW  Elec       q    Type
REMARK                         _______ _______ _______ _____ _____    ______ ____
ROOT
ATOM      1  O   HOH     1     -12.259   0.284  15.691  0.00  0.00    +0.000 OA
ENDROOT
TORSDOF 0
REMARK  Name = ../refined-set-2016/3agl/3agl_pocket.pdb
REMARK  332 active torsions:
REMARK  status: ('A' for Active; 'I' for Inactive)
REMARK    1  A    between atoms: _1  and  _3
REMARK    2  A    between atoms: _3  and  _4
REMARK    3  A    between atoms: _3  and  _6
REMARK    4  A    between atoms: _6  and  _7
REMARK    5  A    between atoms: _10  and  _12
REMARK    6  A    between atoms: _12  and  _13
REMARK    7  A    between atoms: _12  and  _15
REMARK    8  A    between atoms: _15  and  _16
REMARK    9  A    between atoms: _19  and  _21
REMARK   10  A    between atoms: _21  and  _22
REMARK   11  A    between atoms: _24  and  _26
REMARK   12  A    between atoms: _26  and  _27
REMARK   13  A    between atoms: _26  and  _29
REMARK   14  A    between atoms: _29  and  _30
REMARK   15  A    between atoms: _33  and  _35
REMARK   16  A    between atoms: _35  and  _36
REMARK   17  A    between atoms: _38  and  _40
REMARK   18  A    between atoms: _40  and  _41
REMARK   19  A    between atoms: _40  and  _43
REMARK   20  A    between atoms: _43  and  _44
REMARK   21  A    between atoms: _46  and  _48
REMARK   22  A    between atoms: _48  and  _49
REMARK   23  A    between atoms: _48  and  _51
REMARK   24  A    between atoms: _51  and  _52
REMARK   25  A    between atoms: _58  and  _60
REMARK   26  A    between atoms: _60  and  _61
REMARK   27  A    between atoms: _63  and  _65
REMARK   28  A    between atoms: _65  and  _66
REMARK   29  A    between atoms: _65  and  _68
REMARK   30  A    between atoms: _68  and  _69
REMARK   31  A    between atoms: _69  and  _70
REMARK   32  A    between atoms: _70  and  _71
REMARK   33  A    between atoms: _80  and  _82
REMARK   34  A    between atoms: _82  and  _83
REMARK   35  A    between atoms: _82  and  _85
REMARK   36  A    between atoms: _88  and  _90
REMARK   37  A    between atoms: _90  and  _91
REMARK   38  A    between atoms: _90  and  _93
REMARK   39  A    between atoms: _93  and  _94
REMARK   40  A    between atoms: _94  and  _95
REMARK   41  A    between atoms: _97  and  _99
REMARK   42  A    between atoms: _99  and  _100
REMARK   43  A    between atoms: _99  and  _102
REMARK   44  A    between atoms: _102  and  _103
REMARK   45  A    between atoms: _106  and  _108
REMARK   46  A    between atoms: _108  and  _109
REMARK   47  A    between atoms: _108  and  _111
REMARK   48  A    between atoms: _111  and  _112
REMARK   49  A    between atoms: _117  and  _118
REMARK   50  A    between atoms: _120  and  _122
REMARK   51  A    between atoms: _122  and  _123
REMARK   52  A    between atoms: _126  and  _128
REMARK   53  A    between atoms: _128  and  _129
REMARK   54  A    between atoms: _128  and  _131
REMARK   55  A    between atoms: _131  and  _132
REMARK   56  A    between atoms: _132  and  _133
REMARK   57  A    between atoms: _135  and  _137
REMARK   58  A    between atoms: _137  and  _138
REMARK   59  A    between atoms: _137  and  _140
REMARK   60  A    between atoms: _140  and  _141
REMARK   61  A    between atoms: _141  and  _142
REMARK   62  A    between atoms: _142  and  _143
REMARK   63  A    between atoms: _143  and  _144
REMARK   64  A    between atoms: _148  and  _150
REMARK   65  A    between atoms: _150  and  _151
REMARK   66  A    between atoms: _150  and  _153
REMARK   67  A    between atoms: _153  and  _154
REMARK   68  A    between atoms: _157  and  _159
REMARK   69  A    between atoms: _159  and  _160
REMARK   70  A    between atoms: _159  and  _162
REMARK   71  A    between atoms: _162  and  _163
REMARK   72  A    between atoms: _166  and  _168
REMARK   73  A    between atoms: _168  and  _169
REMARK   74  A    between atoms: _168  and  _171
REMARK   75  A    between atoms: _171  and  _172
REMARK   76  A    between atoms: _175  and  _177
REMARK   77  A    between atoms: _177  and  _178
REMARK   78  A    between atoms: _177  and  _180
REMARK   79  A    between atoms: _180  and  _181
REMARK   80  A    between atoms: _181  and  _182
REMARK   81  A    between atoms: _182  and  _183
REMARK   82  A    between atoms: _183  and  _184
REMARK   83  A    between atoms: _188  and  _190
REMARK   84  A    between atoms: _190  and  _191
REMARK   85  A    between atoms: _190  and  _193
REMARK   86  A    between atoms: _196  and  _198
REMARK   87  A    between atoms: _198  and  _199
REMARK   88  A    between atoms: _198  and  _201
REMARK   89  A    between atoms: _201  and  _202
REMARK   90  A    between atoms: _205  and  _207
REMARK   91  A    between atoms: _207  and  _208
REMARK   92  A    between atoms: _207  and  _210
REMARK   93  A    between atoms: _210  and  _211
REMARK   94  A    between atoms: _211  and  _212
REMARK   95  A    between atoms: _217  and  _219
REMARK   96  A    between atoms: _219  and  _220
REMARK   97  A    between atoms: _219  and  _222
REMARK   98  A    between atoms: _222  and  _223
REMARK   99  A    between atoms: _228  and  _230
REMARK  100  A    between atoms: _230  and  _231
REMARK  101  A    between atoms: _230  and  _233
REMARK  102  A    between atoms: _233  and  _234
REMARK  103  A    between atoms: _237  and  _239
REMARK  104  A    between atoms: _239  and  _240
REMARK  105  A    between atoms: _239  and  _242
REMARK  106  A    between atoms: _242  and  _243
REMARK  107  A    between atoms: _243  and  _244
REMARK  108  A    between atoms: _247  and  _249
REMARK  109  A    between atoms: _249  and  _250
REMARK  110  A    between atoms: _249  and  _252
REMARK  111  A    between atoms: _252  and  _253
REMARK  112  A    between atoms: _256  and  _258
REMARK  113  A    between atoms: _258  and  _259
REMARK  114  A    between atoms: _258  and  _261
REMARK  115  A    between atoms: _264  and  _266
REMARK  116  A    between atoms: _266  and  _267
REMARK  117  A    between atoms: _266  and  _269
REMARK  118  A    between atoms: _269  and  _270
REMARK  119  A    between atoms: _270  and  _271
REMARK  120  A    between atoms: _271  and  _272
REMARK  121  A    between atoms: _272  and  _273
REMARK  122  A    between atoms: _277  and  _279
REMARK  123  A    between atoms: _279  and  _280
REMARK  124  A    between atoms: _279  and  _282
REMARK  125  A    between atoms: _282  and  _283
REMARK  126  A    between atoms: _286  and  _288
REMARK  127  A    between atoms: _288  and  _289
REMARK  128  A    between atoms: _288  and  _291
REMARK  129  A    between atoms: _291  and  _292
REMARK  130  A    between atoms: _292  and  _293
REMARK  131  A    between atoms: _296  and  _298
REMARK  132  A    between atoms: _298  and  _299
REMARK  133  A    between atoms: _298  and  _301
REMARK  134  A    between atoms: _301  and  _302
REMARK  135  A    between atoms: _302  and  _303
REMARK  136  A    between atoms: _305  and  _307
REMARK  137  A    between atoms: _307  and  _308
REMARK  138  A    between atoms: _307  and  _310
REMARK  139  A    between atoms: _313  and  _315
REMARK  140  A    between atoms: _315  and  _316
REMARK  141  A    between atoms: _315  and  _318
REMARK  142  A    between atoms: _318  and  _319
REMARK  143  A    between atoms: _319  and  _320
REMARK  144  A    between atoms: _322  and  _324
REMARK  145  A    between atoms: _324  and  _325
REMARK  146  A    between atoms: _324  and  _327
REMARK  147  A    between atoms: _327  and  _328
REMARK  148  A    between atoms: _328  and  _329
REMARK  149  A    between atoms: _332  and  _334
REMARK  150  A    between atoms: _334  and  _335
REMARK  151  A    between atoms: _334  and  _337
REMARK  152  A    between atoms: _337  and  _338
REMARK  153  A    between atoms: _343  and  _344
REMARK  154  A    between atoms: _346  and  _348
REMARK  155  A    between atoms: _348  and  _349
REMARK  156  A    between atoms: _348  and  _351
REMARK  157  A    between atoms: _355  and  _356
REMARK  158  A    between atoms: _361  and  _363
REMARK  159  A    between atoms: _363  and  _364
REMARK  160  A    between atoms: _366  and  _368
REMARK  161  A    between atoms: _368  and  _369
REMARK  162  A    between atoms: _371  and  _373
REMARK  163  A    between atoms: _373  and  _374
REMARK  164  A    between atoms: _373  and  _376
REMARK  165  A    between atoms: _376  and  _377
REMARK  166  A    between atoms: _377  and  _378
REMARK  167  A    between atoms: _381  and  _383
REMARK  168  A    between atoms: _383  and  _384
REMARK  169  A    between atoms: _383  and  _386
REMARK  170  A    between atoms: _386  and  _387
REMARK  171  A    between atoms: _387  and  _388
REMARK  172  A    between atoms: _390  and  _392
REMARK  173  A    between atoms: _392  and  _393
REMARK  174  A    between atoms: _392  and  _395
REMARK  175  A    between atoms: _395  and  _396
REMARK  176  A    between atoms: _402  and  _404
REMARK  177  A    between atoms: _404  and  _405
REMARK  178  A    between atoms: _404  and  _407
REMARK  179  A    between atoms: _407  and  _408
REMARK  180  A    between atoms: _410  and  _412
REMARK  181  A    between atoms: _412  and  _413
REMARK  182  A    between atoms: _412  and  _415
REMARK  183  A    between atoms: _415  and  _416
REMARK  184  A    between atoms: _419  and  _421
REMARK  185  A    between atoms: _421  and  _422
REMARK  186  A    between atoms: _421  and  _424
REMARK  187  A    between atoms: _424  and  _425
REMARK  188  A    between atoms: _425  and  _426
REMARK  189  A    between atoms: _426  and  _427
REMARK  190  A    between atoms: _436  and  _438
REMARK  191  A    between atoms: _438  and  _439
REMARK  192  A    between atoms: _438  and  _441
REMARK  193  A    between atoms: _441  and  _442
REMARK  194  A    between atoms: _447  and  _448
REMARK  195  A    between atoms: _450  and  _452
REMARK  196  A    between atoms: _452  and  _453
REMARK  197  A    between atoms: _452  and  _455
REMARK  198  A    between atoms: _455  and  _456
REMARK  199  A    between atoms: _459  and  _461
REMARK  200  A    between atoms: _461  and  _462
REMARK  201  A    between atoms: _461  and  _464
REMARK  202  A    between atoms: _464  and  _465
REMARK  203  A    between atoms: _468  and  _470
REMARK  204  A    between atoms: _470  and  _471
REMARK  205  A    between atoms: _470  and  _473
REMARK  206  A    between atoms: _473  and  _474
REMARK  207  A    between atoms: _474  and  _475
REMARK  208  A    between atoms: _475  and  _476
REMARK  209  A    between atoms: _476  and  _477
REMARK  210  A    between atoms: _482  and  _483
REMARK  211  A    between atoms: _488  and  _490
REMARK  212  A    between atoms: _490  and  _491
REMARK  213  A    between atoms: _490  and  _493
REMARK  214  A    between atoms: _493  and  _494
REMARK  215  A    between atoms: _494  and  _495
REMARK  216  A    between atoms: _498  and  _500
REMARK  217  A    between atoms: _500  and  _501
REMARK  218  A    between atoms: _500  and  _503
REMARK  219  A    between atoms: _503  and  _504
REMARK  220  A    between atoms: _509  and  _511
REMARK  221  A    between atoms: _511  and  _512
REMARK  222  A    between atoms: _511  and  _514
REMARK  223  A    between atoms: _514  and  _515
REMARK  224  A    between atoms: _518  and  _520
REMARK  225  A    between atoms: _520  and  _521
REMARK  226  A    between atoms: _520  and  _523
REMARK  227  A    between atoms: _523  and  _524
REMARK  228  A    between atoms: _527  and  _529
REMARK  229  A    between atoms: _529  and  _530
REMARK  230  A    between atoms: _529  and  _532
REMARK  231  A    between atoms: _532  and  _533
REMARK  232  A    between atoms: _536  and  _538
REMARK  233  A    between atoms: _538  and  _539
REMARK  234  A    between atoms: _538  and  _541
REMARK  235  A    between atoms: _541  and  _542
REMARK  236  A    between atoms: _542  and  _543
REMARK  237  A    between atoms: _548  and  _550
REMARK  238  A    between atoms: _550  and  _551
REMARK  239  A    between atoms: _550  and  _553
REMARK  240  A    between atoms: _556  and  _558
REMARK  241  A    between atoms: _558  and  _559
REMARK  242  A    between atoms: _558  and  _561
REMARK  243  A    between atoms: _561  and  _562
REMARK  244  A    between atoms: _565  and  _567
REMARK  245  A    between atoms: _567  and  _568
REMARK  246  A    between atoms: _567  and  _570
REMARK  247  A    between atoms: _570  and  _571
REMARK  248  A    between atoms: _574  and  _576
REMARK  249  A    between atoms: _576  and  _577
REMARK  250  A    between atoms: _576  and  _579
REMARK  251  A    between atoms: _579  and  _580
REMARK  252  A    between atoms: _586  and  _588
REMARK  253  A    between atoms: _588  and  _589
REMARK  254  A    between atoms: _591  and  _593
REMARK  255  A    between atoms: _593  and  _594
REMARK  256  A    between atoms: _593  and  _596
REMARK  257  A    between atoms: _596  and  _597
REMARK  258  A    between atoms: _603  and  _605
REMARK  259  A    between atoms: _605  and  _606
REMARK  260  A    between atoms: _605  and  _608
REMARK  261  A    between atoms: _610  and  _612
REMARK  262  A    between atoms: _612  and  _613
REMARK  263  A    between atoms: _615  and  _617
REMARK  264  A    between atoms: _617  and  _618
REMARK  265  A    between atoms: _617  and  _620
REMARK  266  A    between atoms: _620  and  _621
REMARK  267  A    between atoms: _625  and  _626
REMARK  268  A    between atoms: _631  and  _633
REMARK  269  A    between atoms: _633  and  _634
REMARK  270  A    between atoms: _633  and  _636
REMARK  271  A    between atoms: _636  and  _637
REMARK  272  A    between atoms: _637  and  _638
REMARK  273  A    between atoms: _641  and  _643
REMARK  274  A    between atoms: _643  and  _644
REMARK  275  A    between atoms: _643  and  _646
REMARK  276  A    between atoms: _646  and  _647
REMARK  277  A    between atoms: _652  and  _653
REMARK  278  A    between atoms: _655  and  _657
REMARK  279  A    between atoms: _657  and  _658
REMARK  280  A    between atoms: _657  and  _660
REMARK  281  A    between atoms: _663  and  _665
REMARK  282  A    between atoms: _665  and  _666
REMARK  283  A    between atoms: _665  and  _668
REMARK  284  A    between atoms: _668  and  _669
REMARK  285  A    between atoms: _672  and  _674
REMARK  286  A    between atoms: _674  and  _675
REMARK  287  A    between atoms: _674  and  _677
REMARK  288  A    between atoms: _677  and  _678
REMARK  289  A    between atoms: _678  and  _679
REMARK  290  A    between atoms: _682  and  _684
REMARK  291  A    between atoms: _684  and  _685
REMARK  292  A    between atoms: _684  and  _687
REMARK  293  A    between atoms: _687  and  _688
REMARK  294  A    between atoms: _688  and  _689
REMARK  295  A    between atoms: _691  and  _693
REMARK  296  A    between atoms: _693  and  _694
REMARK  297  A    between atoms: _696  and  _698
REMARK  298  A    between atoms: _698  and  _699
REMARK  299  A    between atoms: _698  and  _701
REMARK  300  A    between atoms: _701  and  _702
REMARK  301  A    between atoms: _707  and  _708
REMARK  302  A    between atoms: _711  and  _712
REMARK  303  A    between atoms: _718  and  _719
REMARK  304  A    between atoms: _724  and  _726
REMARK  305  A    between atoms: _726  and  _727
REMARK  306  A    between atoms: _726  and  _729
REMARK  307  A    between atoms: _729  and  _730
REMARK  308  A    between atoms: _736  and  _738
REMARK  309  A    between atoms: _738  and  _739
REMARK  310  A    between atoms: _738  and  _741
REMARK  311  A    between atoms: _741  and  _742
REMARK  312  A    between atoms: _748  and  _750
REMARK  313  A    between atoms: _750  and  _751
REMARK  314  A    between atoms: _750  and  _753
REMARK  315  A    between atoms: _753  and  _754
REMARK  316  A    between atoms: _757  and  _759
REMARK  317  A    between atoms: _759  and  _760
REMARK  318  A    between atoms: _759  and  _762
REMARK  319  A    between atoms: _762  and  _763
REMARK  320  A    between atoms: _768  and  _770
REMARK  321  A    between atoms: _770  and  _771
REMARK  322  A    between atoms: _770  and  _773
REMARK  323  A    between atoms: _773  and  _774
REMARK  324  A    between atoms: _780  and  _782
REMARK  325  A    between atoms: _782  and  _783
REMARK  326  A    between atoms: _782  and  _785
REMARK  327  A    between atoms: _785  and  _786
REMARK  328  A    between atoms: _789  and  _791
REMARK  329  A    between atoms: _791  and  _792
REMARK  330  A    between atoms: _791  and  _794
REMARK  331  A    between atoms: _794  and  _795
REMARK  332  A    between atoms: _800  and  _801
REMARK                            x       y       z     vdW  Elec       q    Type
REMARK                         _______ _______ _______ _____ _____    ______ ____
ROOT
ATOM      1  O   HOH     1     -17.351   6.427  -7.536  0.00  0.00    +0.000 OA
ENDROOT
TORSDOF 0
REMARK  Name = ../refined-set-2016/3agl/3agl_pocket.pdb
REMARK  332 active torsions:
REMARK  status: ('A' for Active; 'I' for Inactive)
REMARK    1  A    between atoms: _1  and  _3
REMARK    2  A    between atoms: _3  and  _4
REMARK    3  A    between atoms: _3  and  _6
REMARK    4  A    between atoms: _6  and  _7
REMARK    5  A    between atoms: _10  and  _12
REMARK    6  A    between atoms: _12  and  _13
REMARK    7  A    between atoms: _12  and  _15
REMARK    8  A    between atoms: _15  and  _16
REMARK    9  A    between atoms: _19  and  _21
REMARK   10  A    between atoms: _21  and  _22
REMARK   11  A    between atoms: _24  and  _26
REMARK   12  A    between atoms: _26  and  _27
REMARK   13  A    between atoms: _26  and  _29
REMARK   14  A    between atoms: _29  and  _30
REMARK   15  A    between atoms: _33  and  _35
REMARK   16  A    between atoms: _35  and  _36
REMARK   17  A    between atoms: _38  and  _40
REMARK   18  A    between atoms: _40  and  _41
REMARK   19  A    between atoms: _40  and  _43
REMARK   20  A    between atoms: _43  and  _44
REMARK   21  A    between atoms: _46  and  _48
REMARK   22  A    between atoms: _48  and  _49
REMARK   23  A    between atoms: _48  and  _51
REMARK   24  A    between atoms: _51  and  _52
REMARK   25  A    between atoms: _58  and  _60
REMARK   26  A    between atoms: _60  and  _61
REMARK   27  A    between atoms: _63  and  _65
REMARK   28  A    between atoms: _65  and  _66
REMARK   29  A    between atoms: _65  and  _68
REMARK   30  A    between atoms: _68  and  _69
REMARK   31  A    between atoms: _69  and  _70
REMARK   32  A    between atoms: _70  and  _71
REMARK   33  A    between atoms: _80  and  _82
REMARK   34  A    between atoms: _82  and  _83
REMARK   35  A    between atoms: _82  and  _85
REMARK   36  A    between atoms: _88  and  _90
REMARK   37  A    between atoms: _90  and  _91
REMARK   38  A    between atoms: _90  and  _93
REMARK   39  A    between atoms: _93  and  _94
REMARK   40  A    between atoms: _94  and  _95
REMARK   41  A    between atoms: _97  and  _99
REMARK   42  A    between atoms: _99  and  _100
REMARK   43  A    between atoms: _99  and  _102
REMARK   44  A    between atoms: _102  and  _103
REMARK   45  A    between atoms: _106  and  _108
REMARK   46  A    between atoms: _108  and  _109
REMARK   47  A    between atoms: _108  and  _111
REMARK   48  A    between atoms: _111  and  _112
REMARK   49  A    between atoms: _117  and  _118
REMARK   50  A    between atoms: _120  and  _122
REMARK   51  A    between atoms: _122  and  _123
REMARK   52  A    between atoms: _126  and  _128
REMARK   53  A    between atoms: _128  and  _129
REMARK   54  A    between atoms: _128  and  _131
REMARK   55  A    between atoms: _131  and  _132
REMARK   56  A    between atoms: _132  and  _133
REMARK   57  A    between atoms: _135  and  _137
REMARK   58  A    between atoms: _137  and  _138
REMARK   59  A    between atoms: _137  and  _140
REMARK   60  A    between atoms: _140  and  _141
REMARK   61  A    between atoms: _141  and  _142
REMARK   62  A    between atoms: _142  and  _143
REMARK   63  A    between atoms: _143  and  _144
REMARK   64  A    between atoms: _148  and  _150
REMARK   65  A    between atoms: _150  and  _151
REMARK   66  A    between atoms: _150  and  _153
REMARK   67  A    between atoms: _153  and  _154
REMARK   68  A    between atoms: _157  and  _159
REMARK   69  A    between atoms: _159  and  _160
REMARK   70  A    between atoms: _159  and  _162
REMARK   71  A    between atoms: _162  and  _163
REMARK   72  A    between atoms: _166  and  _168
REMARK   73  A    between atoms: _168  and  _169
REMARK   74  A    between atoms: _168  and  _171
REMARK   75  A    between atoms: _171  and  _172
REMARK   76  A    between atoms: _175  and  _177
REMARK   77  A    between atoms: _177  and  _178
REMARK   78  A    between atoms: _177  and  _180
REMARK   79  A    between atoms: _180  and  _181
REMARK   80  A    between atoms: _181  and  _182
REMARK   81  A    between atoms: _182  and  _183
REMARK   82  A    between atoms: _183  and  _184
REMARK   83  A    between atoms: _188  and  _190
REMARK   84  A    between atoms: _190  and  _191
REMARK   85  A    between atoms: _190  and  _193
REMARK   86  A    between atoms: _196  and  _198
REMARK   87  A    between atoms: _198  and  _199
REMARK   88  A    between atoms: _198  and  _201
REMARK   89  A    between atoms: _201  and  _202
REMARK   90  A    between atoms: _205  and  _207
REMARK   91  A    between atoms: _207  and  _208
REMARK   92  A    between atoms: _207  and  _210
REMARK   93  A    between atoms: _210  and  _211
REMARK   94  A    between atoms: _211  and  _212
REMARK   95  A    between atoms: _217  and  _219
REMARK   96  A    between atoms: _219  and  _220
REMARK   97  A    between atoms: _219  and  _222
REMARK   98  A    between atoms: _222  and  _223
REMARK   99  A    between atoms: _228  and  _230
REMARK  100  A    between atoms: _230  and  _231
REMARK  101  A    between atoms: _230  and  _233
REMARK  102  A    between atoms: _233  and  _234
REMARK  103  A    between atoms: _237  and  _239
REMARK  104  A    between atoms: _239  and  _240
REMARK  105  A    between atoms: _239  and  _242
REMARK  106  A    between atoms: _242  and  _243
REMARK  107  A    between atoms: _243  and  _244
REMARK  108  A    between atoms: _247  and  _249
REMARK  109  A    between atoms: _249  and  _250
REMARK  110  A    between atoms: _249  and  _252
REMARK  111  A    between atoms: _252  and  _253
REMARK  112  A    between atoms: _256  and  _258
REMARK  113  A    between atoms: _258  and  _259
REMARK  114  A    between atoms: _258  and  _261
REMARK  115  A    between atoms: _264  and  _266
REMARK  116  A    between atoms: _266  and  _267
REMARK  117  A    between atoms: _266  and  _269
REMARK  118  A    between atoms: _269  and  _270
REMARK  119  A    between atoms: _270  and  _271
REMARK  120  A    between atoms: _271  and  _272
REMARK  121  A    between atoms: _272  and  _273
REMARK  122  A    between atoms: _277  and  _279
REMARK  123  A    between atoms: _279  and  _280
REMARK  124  A    between atoms: _279  and  _282
REMARK  125  A    between atoms: _282  and  _283
REMARK  126  A    between atoms: _286  and  _288
REMARK  127  A    between atoms: _288  and  _289
REMARK  128  A    between atoms: _288  and  _291
REMARK  129  A    between atoms: _291  and  _292
REMARK  130  A    between atoms: _292  and  _293
REMARK  131  A    between atoms: _296  and  _298
REMARK  132  A    between atoms: _298  and  _299
REMARK  133  A    between atoms: _298  and  _301
REMARK  134  A    between atoms: _301  and  _302
REMARK  135  A    between atoms: _302  and  _303
REMARK  136  A    between atoms: _305  and  _307
REMARK  137  A    between atoms: _307  and  _308
REMARK  138  A    between atoms: _307  and  _310
REMARK  139  A    between atoms: _313  and  _315
REMARK  140  A    between atoms: _315  and  _316
REMARK  141  A    between atoms: _315  and  _318
REMARK  142  A    between atoms: _318  and  _319
REMARK  143  A    between atoms: _319  and  _320
REMARK  144  A    between atoms: _322  and  _324
REMARK  145  A    between atoms: _324  and  _325
REMARK  146  A    between atoms: _324  and  _327
REMARK  147  A    between atoms: _327  and  _328
REMARK  148  A    between atoms: _328  and  _329
REMARK  149  A    between atoms: _332  and  _334
REMARK  150  A    between atoms: _334  and  _335
REMARK  151  A    between atoms: _334  and  _337
REMARK  152  A    between atoms: _337  and  _338
REMARK  153  A    between atoms: _343  and  _344
REMARK  154  A    between atoms: _346  and  _348
REMARK  155  A    between atoms: _348  and  _349
REMARK  156  A    between atoms: _348  and  _351
REMARK  157  A    between atoms: _355  and  _356
REMARK  158  A    between atoms: _361  and  _363
REMARK  159  A    between atoms: _363  and  _364
REMARK  160  A    between atoms: _366  and  _368
REMARK  161  A    between atoms: _368  and  _369
REMARK  162  A    between atoms: _371  and  _373
REMARK  163  A    between atoms: _373  and  _374
REMARK  164  A    between atoms: _373  and  _376
REMARK  165  A    between atoms: _376  and  _377
REMARK  166  A    between atoms: _377  and  _378
REMARK  167  A    between atoms: _381  and  _383
REMARK  168  A    between atoms: _383  and  _384
REMARK  169  A    between atoms: _383  and  _386
REMARK  170  A    between atoms: _386  and  _387
REMARK  171  A    between atoms: _387  and  _388
REMARK  172  A    between atoms: _390  and  _392
REMARK  173  A    between atoms: _392  and  _393
REMARK  174  A    between atoms: _392  and  _395
REMARK  175  A    between atoms: _395  and  _396
REMARK  176  A    between atoms: _402  and  _404
REMARK  177  A    between atoms: _404  and  _405
REMARK  178  A    between atoms: _404  and  _407
REMARK  179  A    between atoms: _407  and  _408
REMARK  180  A    between atoms: _410  and  _412
REMARK  181  A    between atoms: _412  and  _413
REMARK  182  A    between atoms: _412  and  _415
REMARK  183  A    between atoms: _415  and  _416
REMARK  184  A    between atoms: _419  and  _421
REMARK  185  A    between atoms: _421  and  _422
REMARK  186  A    between atoms: _421  and  _424
REMARK  187  A    between atoms: _424  and  _425
REMARK  188  A    between atoms: _425  and  _426
REMARK  189  A    between atoms: _426  and  _427
REMARK  190  A    between atoms: _436  and  _438
REMARK  191  A    between atoms: _438  and  _439
REMARK  192  A    between atoms: _438  and  _441
REMARK  193  A    between atoms: _441  and  _442
REMARK  194  A    between atoms: _447  and  _448
REMARK  195  A    between atoms: _450  and  _452
REMARK  196  A    between atoms: _452  and  _453
REMARK  197  A    between atoms: _452  and  _455
REMARK  198  A    between atoms: _455  and  _456
REMARK  199  A    between atoms: _459  and  _461
REMARK  200  A    between atoms: _461  and  _462
REMARK  201  A    between atoms: _461  and  _464
REMARK  202  A    between atoms: _464  and  _465
REMARK  203  A    between atoms: _468  and  _470
REMARK  204  A    between atoms: _470  and  _471
REMARK  205  A    between atoms: _470  and  _473
REMARK  206  A    between atoms: _473  and  _474
REMARK  207  A    between atoms: _474  and  _475
REMARK  208  A    between atoms: _475  and  _476
REMARK  209  A    between atoms: _476  and  _477
REMARK  210  A    between atoms: _482  and  _483
REMARK  211  A    between atoms: _488  and  _490
REMARK  212  A    between atoms: _490  and  _491
REMARK  213  A    between atoms: _490  and  _493
REMARK  214  A    between atoms: _493  and  _494
REMARK  215  A    between atoms: _494  and  _495
REMARK  216  A    between atoms: _498  and  _500
REMARK  217  A    between atoms: _500  and  _501
REMARK  218  A    between atoms: _500  and  _503
REMARK  219  A    between atoms: _503  and  _504
REMARK  220  A    between atoms: _509  and  _511
REMARK  221  A    between atoms: _511  and  _512
REMARK  222  A    between atoms: _511  and  _514
REMARK  223  A    between atoms: _514  and  _515
REMARK  224  A    between atoms: _518  and  _520
REMARK  225  A    between atoms: _520  and  _521
REMARK  226  A    between atoms: _520  and  _523
REMARK  227  A    between atoms: _523  and  _524
REMARK  228  A    between atoms: _527  and  _529
REMARK  229  A    between atoms: _529  and  _530
REMARK  230  A    between atoms: _529  and  _532
REMARK  231  A    between atoms: _532  and  _533
REMARK  232  A    between atoms: _536  and  _538
REMARK  233  A    between atoms: _538  and  _539
REMARK  234  A    between atoms: _538  and  _541
REMARK  235  A    between atoms: _541  and  _542
REMARK  236  A    between atoms: _542  and  _543
REMARK  237  A    between atoms: _548  and  _550
REMARK  238  A    between atoms: _550  and  _551
REMARK  239  A    between atoms: _550  and  _553
REMARK  240  A    between atoms: _556  and  _558
REMARK  241  A    between atoms: _558  and  _559
REMARK  242  A    between atoms: _558  and  _561
REMARK  243  A    between atoms: _561  and  _562
REMARK  244  A    between atoms: _565  and  _567
REMARK  245  A    between atoms: _567  and  _568
REMARK  246  A    between atoms: _567  and  _570
REMARK  247  A    between atoms: _570  and  _571
REMARK  248  A    between atoms: _574  and  _576
REMARK  249  A    between atoms: _576  and  _577
REMARK  250  A    between atoms: _576  and  _579
REMARK  251  A    between atoms: _579  and  _580
REMARK  252  A    between atoms: _586  and  _588
REMARK  253  A    between atoms: _588  and  _589
REMARK  254  A    between atoms: _591  and  _593
REMARK  255  A    between atoms: _593  and  _594
REMARK  256  A    between atoms: _593  and  _596
REMARK  257  A    between atoms: _596  and  _597
REMARK  258  A    between atoms: _603  and  _605
REMARK  259  A    between atoms: _605  and  _606
REMARK  260  A    between atoms: _605  and  _608
REMARK  261  A    between atoms: _610  and  _612
REMARK  262  A    between atoms: _612  and  _613
REMARK  263  A    between atoms: _615  and  _617
REMARK  264  A    between atoms: _617  and  _618
REMARK  265  A    between atoms: _617  and  _620
REMARK  266  A    between atoms: _620  and  _621
REMARK  267  A    between atoms: _625  and  _626
REMARK  268  A    between atoms: _631  and  _633
REMARK  269  A    between atoms: _633  and  _634
REMARK  270  A    between atoms: _633  and  _636
REMARK  271  A    between atoms: _636  and  _637
REMARK  272  A    between atoms: _637  and  _638
REMARK  273  A    between atoms: _641  and  _643
REMARK  274  A    between atoms: _643  and  _644
REMARK  275  A    between atoms: _643  and  _646
REMARK  276  A    between atoms: _646  and  _647
REMARK  277  A    between atoms: _652  and  _653
REMARK  278  A    between atoms: _655  and  _657
REMARK  279  A    between atoms: _657  and  _658
REMARK  280  A    between atoms: _657  and  _660
REMARK  281  A    between atoms: _663  and  _665
REMARK  282  A    between atoms: _665  and  _666
REMARK  283  A    between atoms: _665  and  _668
REMARK  284  A    between atoms: _668  and  _669
REMARK  285  A    between atoms: _672  and  _674
REMARK  286  A    between atoms: _674  and  _675
REMARK  287  A    between atoms: _674  and  _677
REMARK  288  A    between atoms: _677  and  _678
REMARK  289  A    between atoms: _678  and  _679
REMARK  290  A    between atoms: _682  and  _684
REMARK  291  A    between atoms: _684  and  _685
REMARK  292  A    between atoms: _684  and  _687
REMARK  293  A    between atoms: _687  and  _688
REMARK  294  A    between atoms: _688  and  _689
REMARK  295  A    between atoms: _691  and  _693
REMARK  296  A    between atoms: _693  and  _694
REMARK  297  A    between atoms: _696  and  _698
REMARK  298  A    between atoms: _698  and  _699
REMARK  299  A    between atoms: _698  and  _701
REMARK  300  A    between atoms: _701  and  _702
REMARK  301  A    between atoms: _707  and  _708
REMARK  302  A    between atoms: _711  and  _712
REMARK  303  A    between atoms: _718  and  _719
REMARK  304  A    between atoms: _724  and  _726
REMARK  305  A    between atoms: _726  and  _727
REMARK  306  A    between atoms: _726  and  _729
REMARK  307  A    between atoms: _729  and  _730
REMARK  308  A    between atoms: _736  and  _738
REMARK  309  A    between atoms: _738  and  _739
REMARK  310  A    between atoms: _738  and  _741
REMARK  311  A    between atoms: _741  and  _742
REMARK  312  A    between atoms: _748  and  _750
REMARK  313  A    between atoms: _750  and  _751
REMARK  314  A    between atoms: _750  and  _753
REMARK  315  A    between atoms: _753  and  _754
REMARK  316  A    between atoms: _757  and  _759
REMARK  317  A    between atoms: _759  and  _760
REMARK  318  A    between atoms: _759  and  _762
REMARK  319  A    between atoms: _762  and  _763
REMARK  320  A    between atoms: _768  and  _770
REMARK  321  A    between atoms: _770  and  _771
REMARK  322  A    between atoms: _770  and  _773
REMARK  323  A    between atoms: _773  and  _774
REMARK  324  A    between atoms: _780  and  _782
REMARK  325  A    between atoms: _782  and  _783
REMARK  326  A    between atoms: _782  and  _785
REMARK  327  A    between atoms: _785  and  _786
REMARK  328  A    between atoms: _789  and  _791
REMARK  329  A    between atoms: _791  and  _792
REMARK  330  A    between atoms: _791  and  _794
REMARK  331  A    between atoms: _794  and  _795
REMARK  332  A    between atoms: _800  and  _801
REMARK                            x       y       z     vdW  Elec       q    Type
REMARK                         _______ _______ _______ _____ _____    ______ ____
ROOT
ATOM      1  O   HOH     1     -10.286   8.088  11.935  0.00  0.00    +0.000 OA
ENDROOT
TORSDOF 0
REMARK  Name = ../refined-set-2016/3agl/3agl_pocket.pdb
REMARK  332 active torsions:
REMARK  status: ('A' for Active; 'I' for Inactive)
REMARK    1  A    between atoms: _1  and  _3
REMARK    2  A    between atoms: _3  and  _4
REMARK    3  A    between atoms: _3  and  _6
REMARK    4  A    between atoms: _6  and  _7
REMARK    5  A    between atoms: _10  and  _12
REMARK    6  A    between atoms: _12  and  _13
REMARK    7  A    between atoms: _12  and  _15
REMARK    8  A    between atoms: _15  and  _16
REMARK    9  A    between atoms: _19  and  _21
REMARK   10  A    between atoms: _21  and  _22
REMARK   11  A    between atoms: _24  and  _26
REMARK   12  A    between atoms: _26  and  _27
REMARK   13  A    between atoms: _26  and  _29
REMARK   14  A    between atoms: _29  and  _30
REMARK   15  A    between atoms: _33  and  _35
REMARK   16  A    between atoms: _35  and  _36
REMARK   17  A    between atoms: _38  and  _40
REMARK   18  A    between atoms: _40  and  _41
REMARK   19  A    between atoms: _40  and  _43
REMARK   20  A    between atoms: _43  and  _44
REMARK   21  A    between atoms: _46  and  _48
REMARK   22  A    between atoms: _48  and  _49
REMARK   23  A    between atoms: _48  and  _51
REMARK   24  A    between atoms: _51  and  _52
REMARK   25  A    between atoms: _58  and  _60
REMARK   26  A    between atoms: _60  and  _61
REMARK   27  A    between atoms: _63  and  _65
REMARK   28  A    between atoms: _65  and  _66
REMARK   29  A    between atoms: _65  and  _68
REMARK   30  A    between atoms: _68  and  _69
REMARK   31  A    between atoms: _69  and  _70
REMARK   32  A    between atoms: _70  and  _71
REMARK   33  A    between atoms: _80  and  _82
REMARK   34  A    between atoms: _82  and  _83
REMARK   35  A    between atoms: _82  and  _85
REMARK   36  A    between atoms: _88  and  _90
REMARK   37  A    between atoms: _90  and  _91
REMARK   38  A    between atoms: _90  and  _93
REMARK   39  A    between atoms: _93  and  _94
REMARK   40  A    between atoms: _94  and  _95
REMARK   41  A    between atoms: _97  and  _99
REMARK   42  A    between atoms: _99  and  _100
REMARK   43  A    between atoms: _99  and  _102
REMARK   44  A    between atoms: _102  and  _103
REMARK   45  A    between atoms: _106  and  _108
REMARK   46  A    between atoms: _108  and  _109
REMARK   47  A    between atoms: _108  and  _111
REMARK   48  A    between atoms: _111  and  _112
REMARK   49  A    between atoms: _117  and  _118
REMARK   50  A    between atoms: _120  and  _122
REMARK   51  A    between atoms: _122  and  _123
REMARK   52  A    between atoms: _126  and  _128
REMARK   53  A    between atoms: _128  and  _129
REMARK   54  A    between atoms: _128  and  _131
REMARK   55  A    between atoms: _131  and  _132
REMARK   56  A    between atoms: _132  and  _133
REMARK   57  A    between atoms: _135  and  _137
REMARK   58  A    between atoms: _137  and  _138
REMARK   59  A    between atoms: _137  and  _140
REMARK   60  A    between atoms: _140  and  _141
REMARK   61  A    between atoms: _141  and  _142
REMARK   62  A    between atoms: _142  and  _143
REMARK   63  A    between atoms: _143  and  _144
REMARK   64  A    between atoms: _148  and  _150
REMARK   65  A    between atoms: _150  and  _151
REMARK   66  A    between atoms: _150  and  _153
REMARK   67  A    between atoms: _153  and  _154
REMARK   68  A    between atoms: _157  and  _159
REMARK   69  A    between atoms: _159  and  _160
REMARK   70  A    between atoms: _159  and  _162
REMARK   71  A    between atoms: _162  and  _163
REMARK   72  A    between atoms: _166  and  _168
REMARK   73  A    between atoms: _168  and  _169
REMARK   74  A    between atoms: _168  and  _171
REMARK   75  A    between atoms: _171  and  _172
REMARK   76  A    between atoms: _175  and  _177
REMARK   77  A    between atoms: _177  and  _178
REMARK   78  A    between atoms: _177  and  _180
REMARK   79  A    between atoms: _180  and  _181
REMARK   80  A    between atoms: _181  and  _182
REMARK   81  A    between atoms: _182  and  _183
REMARK   82  A    between atoms: _183  and  _184
REMARK   83  A    between atoms: _188  and  _190
REMARK   84  A    between atoms: _190  and  _191
REMARK   85  A    between atoms: _190  and  _193
REMARK   86  A    between atoms: _196  and  _198
REMARK   87  A    between atoms: _198  and  _199
REMARK   88  A    between atoms: _198  and  _201
REMARK   89  A    between atoms: _201  and  _202
REMARK   90  A    between atoms: _205  and  _207
REMARK   91  A    between atoms: _207  and  _208
REMARK   92  A    between atoms: _207  and  _210
REMARK   93  A    between atoms: _210  and  _211
REMARK   94  A    between atoms: _211  and  _212
REMARK   95  A    between atoms: _217  and  _219
REMARK   96  A    between atoms: _219  and  _220
REMARK   97  A    between atoms: _219  and  _222
REMARK   98  A    between atoms: _222  and  _223
REMARK   99  A    between atoms: _228  and  _230
REMARK  100  A    between atoms: _230  and  _231
REMARK  101  A    between atoms: _230  and  _233
REMARK  102  A    between atoms: _233  and  _234
REMARK  103  A    between atoms: _237  and  _239
REMARK  104  A    between atoms: _239  and  _240
REMARK  105  A    between atoms: _239  and  _242
REMARK  106  A    between atoms: _242  and  _243
REMARK  107  A    between atoms: _243  and  _244
REMARK  108  A    between atoms: _247  and  _249
REMARK  109  A    between atoms: _249  and  _250
REMARK  110  A    between atoms: _249  and  _252
REMARK  111  A    between atoms: _252  and  _253
REMARK  112  A    between atoms: _256  and  _258
REMARK  113  A    between atoms: _258  and  _259
REMARK  114  A    between atoms: _258  and  _261
REMARK  115  A    between atoms: _264  and  _266
REMARK  116  A    between atoms: _266  and  _267
REMARK  117  A    between atoms: _266  and  _269
REMARK  118  A    between atoms: _269  and  _270
REMARK  119  A    between atoms: _270  and  _271
REMARK  120  A    between atoms: _271  and  _272
REMARK  121  A    between atoms: _272  and  _273
REMARK  122  A    between atoms: _277  and  _279
REMARK  123  A    between atoms: _279  and  _280
REMARK  124  A    between atoms: _279  and  _282
REMARK  125  A    between atoms: _282  and  _283
REMARK  126  A    between atoms: _286  and  _288
REMARK  127  A    between atoms: _288  and  _289
REMARK  128  A    between atoms: _288  and  _291
REMARK  129  A    between atoms: _291  and  _292
REMARK  130  A    between atoms: _292  and  _293
REMARK  131  A    between atoms: _296  and  _298
REMARK  132  A    between atoms: _298  and  _299
REMARK  133  A    between atoms: _298  and  _301
REMARK  134  A    between atoms: _301  and  _302
REMARK  135  A    between atoms: _302  and  _303
REMARK  136  A    between atoms: _305  and  _307
REMARK  137  A    between atoms: _307  and  _308
REMARK  138  A    between atoms: _307  and  _310
REMARK  139  A    between atoms: _313  and  _315
REMARK  140  A    between atoms: _315  and  _316
REMARK  141  A    between atoms: _315  and  _318
REMARK  142  A    between atoms: _318  and  _319
REMARK  143  A    between atoms: _319  and  _320
REMARK  144  A    between atoms: _322  and  _324
REMARK  145  A    between atoms: _324  and  _325
REMARK  146  A    between atoms: _324  and  _327
REMARK  147  A    between atoms: _327  and  _328
REMARK  148  A    between atoms: _328  and  _329
REMARK  149  A    between atoms: _332  and  _334
REMARK  150  A    between atoms: _334  and  _335
REMARK  151  A    between atoms: _334  and  _337
REMARK  152  A    between atoms: _337  and  _338
REMARK  153  A    between atoms: _343  and  _344
REMARK  154  A    between atoms: _346  and  _348
REMARK  155  A    between atoms: _348  and  _349
REMARK  156  A    between atoms: _348  and  _351
REMARK  157  A    between atoms: _355  and  _356
REMARK  158  A    between atoms: _361  and  _363
REMARK  159  A    between atoms: _363  and  _364
REMARK  160  A    between atoms: _366  and  _368
REMARK  161  A    between atoms: _368  and  _369
REMARK  162  A    between atoms: _371  and  _373
REMARK  163  A    between atoms: _373  and  _374
REMARK  164  A    between atoms: _373  and  _376
REMARK  165  A    between atoms: _376  and  _377
REMARK  166  A    between atoms: _377  and  _378
REMARK  167  A    between atoms: _381  and  _383
REMARK  168  A    between atoms: _383  and  _384
REMARK  169  A    between atoms: _383  and  _386
REMARK  170  A    between atoms: _386  and  _387
REMARK  171  A    between atoms: _387  and  _388
REMARK  172  A    between atoms: _390  and  _392
REMARK  173  A    between atoms: _392  and  _393
REMARK  174  A    between atoms: _392  and  _395
REMARK  175  A    between atoms: _395  and  _396
REMARK  176  A    between atoms: _402  and  _404
REMARK  177  A    between atoms: _404  and  _405
REMARK  178  A    between atoms: _404  and  _407
REMARK  179  A    between atoms: _407  and  _408
REMARK  180  A    between atoms: _410  and  _412
REMARK  181  A    between atoms: _412  and  _413
REMARK  182  A    between atoms: _412  and  _415
REMARK  183  A    between atoms: _415  and  _416
REMARK  184  A    between atoms: _419  and  _421
REMARK  185  A    between atoms: _421  and  _422
REMARK  186  A    between atoms: _421  and  _424
REMARK  187  A    between atoms: _424  and  _425
REMARK  188  A    between atoms: _425  and  _426
REMARK  189  A    between atoms: _426  and  _427
REMARK  190  A    between atoms: _436  and  _438
REMARK  191  A    between atoms: _438  and  _439
REMARK  192  A    between atoms: _438  and  _441
REMARK  193  A    between atoms: _441  and  _442
REMARK  194  A    between atoms: _447  and  _448
REMARK  195  A    between atoms: _450  and  _452
REMARK  196  A    between atoms: _452  and  _453
REMARK  197  A    between atoms: _452  and  _455
REMARK  198  A    between atoms: _455  and  _456
REMARK  199  A    between atoms: _459  and  _461
REMARK  200  A    between atoms: _461  and  _462
REMARK  201  A    between atoms: _461  and  _464
REMARK  202  A    between atoms: _464  and  _465
REMARK  203  A    between atoms: _468  and  _470
REMARK  204  A    between atoms: _470  and  _471
REMARK  205  A    between atoms: _470  and  _473
REMARK  206  A    between atoms: _473  and  _474
REMARK  207  A    between atoms: _474  and  _475
REMARK  208  A    between atoms: _475  and  _476
REMARK  209  A    between atoms: _476  and  _477
REMARK  210  A    between atoms: _482  and  _483
REMARK  211  A    between atoms: _488  and  _490
REMARK  212  A    between atoms: _490  and  _491
REMARK  213  A    between atoms: _490  and  _493
REMARK  214  A    between atoms: _493  and  _494
REMARK  215  A    between atoms: _494  and  _495
REMARK  216  A    between atoms: _498  and  _500
REMARK  217  A    between atoms: _500  and  _501
REMARK  218  A    between atoms: _500  and  _503
REMARK  219  A    between atoms: _503  and  _504
REMARK  220  A    between atoms: _509  and  _511
REMARK  221  A    between atoms: _511  and  _512
REMARK  222  A    between atoms: _511  and  _514
REMARK  223  A    between atoms: _514  and  _515
REMARK  224  A    between atoms: _518  and  _520
REMARK  225  A    between atoms: _520  and  _521
REMARK  226  A    between atoms: _520  and  _523
REMARK  227  A    between atoms: _523  and  _524
REMARK  228  A    between atoms: _527  and  _529
REMARK  229  A    between atoms: _529  and  _530
REMARK  230  A    between atoms: _529  and  _532
REMARK  231  A    between atoms: _532  and  _533
REMARK  232  A    between atoms: _536  and  _538
REMARK  233  A    between atoms: _538  and  _539
REMARK  234  A    between atoms: _538  and  _541
REMARK  235  A    between atoms: _541  and  _542
REMARK  236  A    between atoms: _542  and  _543
REMARK  237  A    between atoms: _548  and  _550
REMARK  238  A    between atoms: _550  and  _551
REMARK  239  A    between atoms: _550  and  _553
REMARK  240  A    between atoms: _556  and  _558
REMARK  241  A    between atoms: _558  and  _559
REMARK  242  A    between atoms: _558  and  _561
REMARK  243  A    between atoms: _561  and  _562
REMARK  244  A    between atoms: _565  and  _567
REMARK  245  A    between atoms: _567  and  _568
REMARK  246  A    between atoms: _567  and  _570
REMARK  247  A    between atoms: _570  and  _571
REMARK  248  A    between atoms: _574  and  _576
REMARK  249  A    between atoms: _576  and  _577
REMARK  250  A    between atoms: _576  and  _579
REMARK  251  A    between atoms: _579  and  _580
REMARK  252  A    between atoms: _586  and  _588
REMARK  253  A    between atoms: _588  and  _589
REMARK  254  A    between atoms: _591  and  _593
REMARK  255  A    between atoms: _593  and  _594
REMARK  256  A    between atoms: _593  and  _596
REMARK  257  A    between atoms: _596  and  _597
REMARK  258  A    between atoms: _603  and  _605
REMARK  259  A    between atoms: _605  and  _606
REMARK  260  A    between atoms: _605  and  _608
REMARK  261  A    between atoms: _610  and  _612
REMARK  262  A    between atoms: _612  and  _613
REMARK  263  A    between atoms: _615  and  _617
REMARK  264  A    between atoms: _617  and  _618
REMARK  265  A    between atoms: _617  and  _620
REMARK  266  A    between atoms: _620  and  _621
REMARK  267  A    between atoms: _625  and  _626
REMARK  268  A    between atoms: _631  and  _633
REMARK  269  A    between atoms: _633  and  _634
REMARK  270  A    between atoms: _633  and  _636
REMARK  271  A    between atoms: _636  and  _637
REMARK  272  A    between atoms: _637  and  _638
REMARK  273  A    between atoms: _641  and  _643
REMARK  274  A    between atoms: _643  and  _644
REMARK  275  A    between atoms: _643  and  _646
REMARK  276  A    between atoms: _646  and  _647
REMARK  277  A    between atoms: _652  and  _653
REMARK  278  A    between atoms: _655  and  _657
REMARK  279  A    between atoms: _657  and  _658
REMARK  280  A    between atoms: _657  and  _660
REMARK  281  A    between atoms: _663  and  _665
REMARK  282  A    between atoms: _665  and  _666
REMARK  283  A    between atoms: _665  and  _668
REMARK  284  A    between atoms: _668  and  _669
REMARK  285  A    between atoms: _672  and  _674
REMARK  286  A    between atoms: _674  and  _675
REMARK  287  A    between atoms: _674  and  _677
REMARK  288  A    between atoms: _677  and  _678
REMARK  289  A    between atoms: _678  and  _679
REMARK  290  A    between atoms: _682  and  _684
REMARK  291  A    between atoms: _684  and  _685
REMARK  292  A    between atoms: _684  and  _687
REMARK  293  A    between atoms: _687  and  _688
REMARK  294  A    between atoms: _688  and  _689
REMARK  295  A    between atoms: _691  and  _693
REMARK  296  A    between atoms: _693  and  _694
REMARK  297  A    between atoms: _696  and  _698
REMARK  298  A    between atoms: _698  and  _699
REMARK  299  A    between atoms: _698  and  _701
REMARK  300  A    between atoms: _701  and  _702
REMARK  301  A    between atoms: _707  and  _708
REMARK  302  A    between atoms: _711  and  _712
REMARK  303  A    between atoms: _718  and  _719
REMARK  304  A    between atoms: _724  and  _726
REMARK  305  A    between atoms: _726  and  _727
REMARK  306  A    between atoms: _726  and  _729
REMARK  307  A    between atoms: _729  and  _730
REMARK  308  A    between atoms: _736  and  _738
REMARK  309  A    between atoms: _738  and  _739
REMARK  310  A    between atoms: _738  and  _741
REMARK  311  A    between atoms: _741  and  _742
REMARK  312  A    between atoms: _748  and  _750
REMARK  313  A    between atoms: _750  and  _751
REMARK  314  A    between atoms: _750  and  _753
REMARK  315  A    between atoms: _753  and  _754
REMARK  316  A    between atoms: _757  and  _759
REMARK  317  A    between atoms: _759  and  _760
REMARK  318  A    between atoms: _759  and  _762
REMARK  319  A    between atoms: _762  and  _763
REMARK  320  A    between atoms: _768  and  _770
REMARK  321  A    between atoms: _770  and  _771
REMARK  322  A    between atoms: _770  and  _773
REMARK  323  A    between atoms: _773  and  _774
REMARK  324  A    between atoms: _780  and  _782
REMARK  325  A    between atoms: _782  and  _783
REMARK  326  A    between atoms: _782  and  _785
REMARK  327  A    between atoms: _785  and  _786
REMARK  328  A    between atoms: _789  and  _791
REMARK  329  A    between atoms: _791  and  _792
REMARK  330  A    between atoms: _791  and  _794
REMARK  331  A    between atoms: _794  and  _795
REMARK  332  A    between atoms: _800  and  _801
REMARK                            x       y       z     vdW  Elec       q    Type
REMARK                         _______ _______ _______ _____ _____    ______ ____
ROOT
ATOM      1  O   HOH     1     -21.928  -1.268  -3.396  0.00  0.00    +0.000 OA
ENDROOT
TORSDOF 0
REMARK  Name = ../refined-set-2016/3agl/3agl_pocket.pdb
REMARK  332 active torsions:
REMARK  status: ('A' for Active; 'I' for Inactive)
REMARK    1  A    between atoms: _1  and  _3
REMARK    2  A    between atoms: _3  and  _4
REMARK    3  A    between atoms: _3  and  _6
REMARK    4  A    between atoms: _6  and  _7
REMARK    5  A    between atoms: _10  and  _12
REMARK    6  A    between atoms: _12  and  _13
REMARK    7  A    between atoms: _12  and  _15
REMARK    8  A    between atoms: _15  and  _16
REMARK    9  A    between atoms: _19  and  _21
REMARK   10  A    between atoms: _21  and  _22
REMARK   11  A    between atoms: _24  and  _26
REMARK   12  A    between atoms: _26  and  _27
REMARK   13  A    between atoms: _26  and  _29
REMARK   14  A    between atoms: _29  and  _30
REMARK   15  A    between atoms: _33  and  _35
REMARK   16  A    between atoms: _35  and  _36
REMARK   17  A    between atoms: _38  and  _40
REMARK   18  A    between atoms: _40  and  _41
REMARK   19  A    between atoms: _40  and  _43
REMARK   20  A    between atoms: _43  and  _44
REMARK   21  A    between atoms: _46  and  _48
REMARK   22  A    between atoms: _48  and  _49
REMARK   23  A    between atoms: _48  and  _51
REMARK   24  A    between atoms: _51  and  _52
REMARK   25  A    between atoms: _58  and  _60
REMARK   26  A    between atoms: _60  and  _61
REMARK   27  A    between atoms: _63  and  _65
REMARK   28  A    between atoms: _65  and  _66
REMARK   29  A    between atoms: _65  and  _68
REMARK   30  A    between atoms: _68  and  _69
REMARK   31  A    between atoms: _69  and  _70
REMARK   32  A    between atoms: _70  and  _71
REMARK   33  A    between atoms: _80  and  _82
REMARK   34  A    between atoms: _82  and  _83
REMARK   35  A    between atoms: _82  and  _85
REMARK   36  A    between atoms: _88  and  _90
REMARK   37  A    between atoms: _90  and  _91
REMARK   38  A    between atoms: _90  and  _93
REMARK   39  A    between atoms: _93  and  _94
REMARK   40  A    between atoms: _94  and  _95
REMARK   41  A    between atoms: _97  and  _99
REMARK   42  A    between atoms: _99  and  _100
REMARK   43  A    between atoms: _99  and  _102
REMARK   44  A    between atoms: _102  and  _103
REMARK   45  A    between atoms: _106  and  _108
REMARK   46  A    between atoms: _108  and  _109
REMARK   47  A    between atoms: _108  and  _111
REMARK   48  A    between atoms: _111  and  _112
REMARK   49  A    between atoms: _117  and  _118
REMARK   50  A    between atoms: _120  and  _122
REMARK   51  A    between atoms: _122  and  _123
REMARK   52  A    between atoms: _126  and  _128
REMARK   53  A    between atoms: _128  and  _129
REMARK   54  A    between atoms: _128  and  _131
REMARK   55  A    between atoms: _131  and  _132
REMARK   56  A    between atoms: _132  and  _133
REMARK   57  A    between atoms: _135  and  _137
REMARK   58  A    between atoms: _137  and  _138
REMARK   59  A    between atoms: _137  and  _140
REMARK   60  A    between atoms: _140  and  _141
REMARK   61  A    between atoms: _141  and  _142
REMARK   62  A    between atoms: _142  and  _143
REMARK   63  A    between atoms: _143  and  _144
REMARK   64  A    between atoms: _148  and  _150
REMARK   65  A    between atoms: _150  and  _151
REMARK   66  A    between atoms: _150  and  _153
REMARK   67  A    between atoms: _153  and  _154
REMARK   68  A    between atoms: _157  and  _159
REMARK   69  A    between atoms: _159  and  _160
REMARK   70  A    between atoms: _159  and  _162
REMARK   71  A    between atoms: _162  and  _163
REMARK   72  A    between atoms: _166  and  _168
REMARK   73  A    between atoms: _168  and  _169
REMARK   74  A    between atoms: _168  and  _171
REMARK   75  A    between atoms: _171  and  _172
REMARK   76  A    between atoms: _175  and  _177
REMARK   77  A    between atoms: _177  and  _178
REMARK   78  A    between atoms: _177  and  _180
REMARK   79  A    between atoms: _180  and  _181
REMARK   80  A    between atoms: _181  and  _182
REMARK   81  A    between atoms: _182  and  _183
REMARK   82  A    between atoms: _183  and  _184
REMARK   83  A    between atoms: _188  and  _190
REMARK   84  A    between atoms: _190  and  _191
REMARK   85  A    between atoms: _190  and  _193
REMARK   86  A    between atoms: _196  and  _198
REMARK   87  A    between atoms: _198  and  _199
REMARK   88  A    between atoms: _198  and  _201
REMARK   89  A    between atoms: _201  and  _202
REMARK   90  A    between atoms: _205  and  _207
REMARK   91  A    between atoms: _207  and  _208
REMARK   92  A    between atoms: _207  and  _210
REMARK   93  A    between atoms: _210  and  _211
REMARK   94  A    between atoms: _211  and  _212
REMARK   95  A    between atoms: _217  and  _219
REMARK   96  A    between atoms: _219  and  _220
REMARK   97  A    between atoms: _219  and  _222
REMARK   98  A    between atoms: _222  and  _223
REMARK   99  A    between atoms: _228  and  _230
REMARK  100  A    between atoms: _230  and  _231
REMARK  101  A    between atoms: _230  and  _233
REMARK  102  A    between atoms: _233  and  _234
REMARK  103  A    between atoms: _237  and  _239
REMARK  104  A    between atoms: _239  and  _240
REMARK  105  A    between atoms: _239  and  _242
REMARK  106  A    between atoms: _242  and  _243
REMARK  107  A    between atoms: _243  and  _244
REMARK  108  A    between atoms: _247  and  _249
REMARK  109  A    between atoms: _249  and  _250
REMARK  110  A    between atoms: _249  and  _252
REMARK  111  A    between atoms: _252  and  _253
REMARK  112  A    between atoms: _256  and  _258
REMARK  113  A    between atoms: _258  and  _259
REMARK  114  A    between atoms: _258  and  _261
REMARK  115  A    between atoms: _264  and  _266
REMARK  116  A    between atoms: _266  and  _267
REMARK  117  A    between atoms: _266  and  _269
REMARK  118  A    between atoms: _269  and  _270
REMARK  119  A    between atoms: _270  and  _271
REMARK  120  A    between atoms: _271  and  _272
REMARK  121  A    between atoms: _272  and  _273
REMARK  122  A    between atoms: _277  and  _279
REMARK  123  A    between atoms: _279  and  _280
REMARK  124  A    between atoms: _279  and  _282
REMARK  125  A    between atoms: _282  and  _283
REMARK  126  A    between atoms: _286  and  _288
REMARK  127  A    between atoms: _288  and  _289
REMARK  128  A    between atoms: _288  and  _291
REMARK  129  A    between atoms: _291  and  _292
REMARK  130  A    between atoms: _292  and  _293
REMARK  131  A    between atoms: _296  and  _298
REMARK  132  A    between atoms: _298  and  _299
REMARK  133  A    between atoms: _298  and  _301
REMARK  134  A    between atoms: _301  and  _302
REMARK  135  A    between atoms: _302  and  _303
REMARK  136  A    between atoms: _305  and  _307
REMARK  137  A    between atoms: _307  and  _308
REMARK  138  A    between atoms: _307  and  _310
REMARK  139  A    between atoms: _313  and  _315
REMARK  140  A    between atoms: _315  and  _316
REMARK  141  A    between atoms: _315  and  _318
REMARK  142  A    between atoms: _318  and  _319
REMARK  143  A    between atoms: _319  and  _320
REMARK  144  A    between atoms: _322  and  _324
REMARK  145  A    between atoms: _324  and  _325
REMARK  146  A    between atoms: _324  and  _327
REMARK  147  A    between atoms: _327  and  _328
REMARK  148  A    between atoms: _328  and  _329
REMARK  149  A    between atoms: _332  and  _334
REMARK  150  A    between atoms: _334  and  _335
REMARK  151  A    between atoms: _334  and  _337
REMARK  152  A    between atoms: _337  and  _338
REMARK  153  A    between atoms: _343  and  _344
REMARK  154  A    between atoms: _346  and  _348
REMARK  155  A    between atoms: _348  and  _349
REMARK  156  A    between atoms: _348  and  _351
REMARK  157  A    between atoms: _355  and  _356
REMARK  158  A    between atoms: _361  and  _363
REMARK  159  A    between atoms: _363  and  _364
REMARK  160  A    between atoms: _366  and  _368
REMARK  161  A    between atoms: _368  and  _369
REMARK  162  A    between atoms: _371  and  _373
REMARK  163  A    between atoms: _373  and  _374
REMARK  164  A    between atoms: _373  and  _376
REMARK  165  A    between atoms: _376  and  _377
REMARK  166  A    between atoms: _377  and  _378
REMARK  167  A    between atoms: _381  and  _383
REMARK  168  A    between atoms: _383  and  _384
REMARK  169  A    between atoms: _383  and  _386
REMARK  170  A    between atoms: _386  and  _387
REMARK  171  A    between atoms: _387  and  _388
REMARK  172  A    between atoms: _390  and  _392
REMARK  173  A    between atoms: _392  and  _393
REMARK  174  A    between atoms: _392  and  _395
REMARK  175  A    between atoms: _395  and  _396
REMARK  176  A    between atoms: _402  and  _404
REMARK  177  A    between atoms: _404  and  _405
REMARK  178  A    between atoms: _404  and  _407
REMARK  179  A    between atoms: _407  and  _408
REMARK  180  A    between atoms: _410  and  _412
REMARK  181  A    between atoms: _412  and  _413
REMARK  182  A    between atoms: _412  and  _415
REMARK  183  A    between atoms: _415  and  _416
REMARK  184  A    between atoms: _419  and  _421
REMARK  185  A    between atoms: _421  and  _422
REMARK  186  A    between atoms: _421  and  _424
REMARK  187  A    between atoms: _424  and  _425
REMARK  188  A    between atoms: _425  and  _426
REMARK  189  A    between atoms: _426  and  _427
REMARK  190  A    between atoms: _436  and  _438
REMARK  191  A    between atoms: _438  and  _439
REMARK  192  A    between atoms: _438  and  _441
REMARK  193  A    between atoms: _441  and  _442
REMARK  194  A    between atoms: _447  and  _448
REMARK  195  A    between atoms: _450  and  _452
REMARK  196  A    between atoms: _452  and  _453
REMARK  197  A    between atoms: _452  and  _455
REMARK  198  A    between atoms: _455  and  _456
REMARK  199  A    between atoms: _459  and  _461
REMARK  200  A    between atoms: _461  and  _462
REMARK  201  A    between atoms: _461  and  _464
REMARK  202  A    between atoms: _464  and  _465
REMARK  203  A    between atoms: _468  and  _470
REMARK  204  A    between atoms: _470  and  _471
REMARK  205  A    between atoms: _470  and  _473
REMARK  206  A    between atoms: _473  and  _474
REMARK  207  A    between atoms: _474  and  _475
REMARK  208  A    between atoms: _475  and  _476
REMARK  209  A    between atoms: _476  and  _477
REMARK  210  A    between atoms: _482  and  _483
REMARK  211  A    between atoms: _488  and  _490
REMARK  212  A    between atoms: _490  and  _491
REMARK  213  A    between atoms: _490  and  _493
REMARK  214  A    between atoms: _493  and  _494
REMARK  215  A    between atoms: _494  and  _495
REMARK  216  A    between atoms: _498  and  _500
REMARK  217  A    between atoms: _500  and  _501
REMARK  218  A    between atoms: _500  and  _503
REMARK  219  A    between atoms: _503  and  _504
REMARK  220  A    between atoms: _509  and  _511
REMARK  221  A    between atoms: _511  and  _512
REMARK  222  A    between atoms: _511  and  _514
REMARK  223  A    between atoms: _514  and  _515
REMARK  224  A    between atoms: _518  and  _520
REMARK  225  A    between atoms: _520  and  _521
REMARK  226  A    between atoms: _520  and  _523
REMARK  227  A    between atoms: _523  and  _524
REMARK  228  A    between atoms: _527  and  _529
REMARK  229  A    between atoms: _529  and  _530
REMARK  230  A    between atoms: _529  and  _532
REMARK  231  A    between atoms: _532  and  _533
REMARK  232  A    between atoms: _536  and  _538
REMARK  233  A    between atoms: _538  and  _539
REMARK  234  A    between atoms: _538  and  _541
REMARK  235  A    between atoms: _541  and  _542
REMARK  236  A    between atoms: _542  and  _543
REMARK  237  A    between atoms: _548  and  _550
REMARK  238  A    between atoms: _550  and  _551
REMARK  239  A    between atoms: _550  and  _553
REMARK  240  A    between atoms: _556  and  _558
REMARK  241  A    between atoms: _558  and  _559
REMARK  242  A    between atoms: _558  and  _561
REMARK  243  A    between atoms: _561  and  _562
REMARK  244  A    between atoms: _565  and  _567
REMARK  245  A    between atoms: _567  and  _568
REMARK  246  A    between atoms: _567  and  _570
REMARK  247  A    between atoms: _570  and  _571
REMARK  248  A    between atoms: _574  and  _576
REMARK  249  A    between atoms: _576  and  _577
REMARK  250  A    between atoms: _576  and  _579
REMARK  251  A    between atoms: _579  and  _580
REMARK  252  A    between atoms: _586  and  _588
REMARK  253  A    between atoms: _588  and  _589
REMARK  254  A    between atoms: _591  and  _593
REMARK  255  A    between atoms: _593  and  _594
REMARK  256  A    between atoms: _593  and  _596
REMARK  257  A    between atoms: _596  and  _597
REMARK  258  A    between atoms: _603  and  _605
REMARK  259  A    between atoms: _605  and  _606
REMARK  260  A    between atoms: _605  and  _608
REMARK  261  A    between atoms: _610  and  _612
REMARK  262  A    between atoms: _612  and  _613
REMARK  263  A    between atoms: _615  and  _617
REMARK  264  A    between atoms: _617  and  _618
REMARK  265  A    between atoms: _617  and  _620
REMARK  266  A    between atoms: _620  and  _621
REMARK  267  A    between atoms: _625  and  _626
REMARK  268  A    between atoms: _631  and  _633
REMARK  269  A    between atoms: _633  and  _634
REMARK  270  A    between atoms: _633  and  _636
REMARK  271  A    between atoms: _636  and  _637
REMARK  272  A    between atoms: _637  and  _638
REMARK  273  A    between atoms: _641  and  _643
REMARK  274  A    between atoms: _643  and  _644
REMARK  275  A    between atoms: _643  and  _646
REMARK  276  A    between atoms: _646  and  _647
REMARK  277  A    between atoms: _652  and  _653
REMARK  278  A    between atoms: _655  and  _657
REMARK  279  A    between atoms: _657  and  _658
REMARK  280  A    between atoms: _657  and  _660
REMARK  281  A    between atoms: _663  and  _665
REMARK  282  A    between atoms: _665  and  _666
REMARK  283  A    between atoms: _665  and  _668
REMARK  284  A    between atoms: _668  and  _669
REMARK  285  A    between atoms: _672  and  _674
REMARK  286  A    between atoms: _674  and  _675
REMARK  287  A    between atoms: _674  and  _677
REMARK  288  A    between atoms: _677  and  _678
REMARK  289  A    between atoms: _678  and  _679
REMARK  290  A    between atoms: _682  and  _684
REMARK  291  A    between atoms: _684  and  _685
REMARK  292  A    between atoms: _684  and  _687
REMARK  293  A    between atoms: _687  and  _688
REMARK  294  A    between atoms: _688  and  _689
REMARK  295  A    between atoms: _691  and  _693
REMARK  296  A    between atoms: _693  and  _694
REMARK  297  A    between atoms: _696  and  _698
REMARK  298  A    between atoms: _698  and  _699
REMARK  299  A    between atoms: _698  and  _701
REMARK  300  A    between atoms: _701  and  _702
REMARK  301  A    between atoms: _707  and  _708
REMARK  302  A    between atoms: _711  and  _712
REMARK  303  A    between atoms: _718  and  _719
REMARK  304  A    between atoms: _724  and  _726
REMARK  305  A    between atoms: _726  and  _727
REMARK  306  A    between atoms: _726  and  _729
REMARK  307  A    between atoms: _729  and  _730
REMARK  308  A    between atoms: _736  and  _738
REMARK  309  A    between atoms: _738  and  _739
REMARK  310  A    between atoms: _738  and  _741
REMARK  311  A    between atoms: _741  and  _742
REMARK  312  A    between atoms: _748  and  _750
REMARK  313  A    between atoms: _750  and  _751
REMARK  314  A    between atoms: _750  and  _753
REMARK  315  A    between atoms: _753  and  _754
REMARK  316  A    between atoms: _757  and  _759
REMARK  317  A    between atoms: _759  and  _760
REMARK  318  A    between atoms: _759  and  _762
REMARK  319  A    between atoms: _762  and  _763
REMARK  320  A    between atoms: _768  and  _770
REMARK  321  A    between atoms: _770  and  _771
REMARK  322  A    between atoms: _770  and  _773
REMARK  323  A    between atoms: _773  and  _774
REMARK  324  A    between atoms: _780  and  _782
REMARK  325  A    between atoms: _782  and  _783
REMARK  326  A    between atoms: _782  and  _785
REMARK  327  A    between atoms: _785  and  _786
REMARK  328  A    between atoms: _789  and  _791
REMARK  329  A    between atoms: _791  and  _792
REMARK  330  A    between atoms: _791  and  _794
REMARK  331  A    between atoms: _794  and  _795
REMARK  332  A    between atoms: _800  and  _801
REMARK                            x       y       z     vdW  Elec       q    Type
REMARK                         _______ _______ _______ _____ _____    ______ ____
ROOT
ATOM      1  O   HOH     1     -17.013  18.599   6.824  0.00  0.00    +0.000 OA
ENDROOT
TORSDOF 0
REMARK  Name = ../refined-set-2016/3agl/3agl_pocket.pdb
REMARK  332 active torsions:
REMARK  status: ('A' for Active; 'I' for Inactive)
REMARK    1  A    between atoms: _1  and  _3
REMARK    2  A    between atoms: _3  and  _4
REMARK    3  A    between atoms: _3  and  _6
REMARK    4  A    between atoms: _6  and  _7
REMARK    5  A    between atoms: _10  and  _12
REMARK    6  A    between atoms: _12  and  _13
REMARK    7  A    between atoms: _12  and  _15
REMARK    8  A    between atoms: _15  and  _16
REMARK    9  A    between atoms: _19  and  _21
REMARK   10  A    between atoms: _21  and  _22
REMARK   11  A    between atoms: _24  and  _26
REMARK   12  A    between atoms: _26  and  _27
REMARK   13  A    between atoms: _26  and  _29
REMARK   14  A    between atoms: _29  and  _30
REMARK   15  A    between atoms: _33  and  _35
REMARK   16  A    between atoms: _35  and  _36
REMARK   17  A    between atoms: _38  and  _40
REMARK   18  A    between atoms: _40  and  _41
REMARK   19  A    between atoms: _40  and  _43
REMARK   20  A    between atoms: _43  and  _44
REMARK   21  A    between atoms: _46  and  _48
REMARK   22  A    between atoms: _48  and  _49
REMARK   23  A    between atoms: _48  and  _51
REMARK   24  A    between atoms: _51  and  _52
REMARK   25  A    between atoms: _58  and  _60
REMARK   26  A    between atoms: _60  and  _61
REMARK   27  A    between atoms: _63  and  _65
REMARK   28  A    between atoms: _65  and  _66
REMARK   29  A    between atoms: _65  and  _68
REMARK   30  A    between atoms: _68  and  _69
REMARK   31  A    between atoms: _69  and  _70
REMARK   32  A    between atoms: _70  and  _71
REMARK   33  A    between atoms: _80  and  _82
REMARK   34  A    between atoms: _82  and  _83
REMARK   35  A    between atoms: _82  and  _85
REMARK   36  A    between atoms: _88  and  _90
REMARK   37  A    between atoms: _90  and  _91
REMARK   38  A    between atoms: _90  and  _93
REMARK   39  A    between atoms: _93  and  _94
REMARK   40  A    between atoms: _94  and  _95
REMARK   41  A    between atoms: _97  and  _99
REMARK   42  A    between atoms: _99  and  _100
REMARK   43  A    between atoms: _99  and  _102
REMARK   44  A    between atoms: _102  and  _103
REMARK   45  A    between atoms: _106  and  _108
REMARK   46  A    between atoms: _108  and  _109
REMARK   47  A    between atoms: _108  and  _111
REMARK   48  A    between atoms: _111  and  _112
REMARK   49  A    between atoms: _117  and  _118
REMARK   50  A    between atoms: _120  and  _122
REMARK   51  A    between atoms: _122  and  _123
REMARK   52  A    between atoms: _126  and  _128
REMARK   53  A    between atoms: _128  and  _129
REMARK   54  A    between atoms: _128  and  _131
REMARK   55  A    between atoms: _131  and  _132
REMARK   56  A    between atoms: _132  and  _133
REMARK   57  A    between atoms: _135  and  _137
REMARK   58  A    between atoms: _137  and  _138
REMARK   59  A    between atoms: _137  and  _140
REMARK   60  A    between atoms: _140  and  _141
REMARK   61  A    between atoms: _141  and  _142
REMARK   62  A    between atoms: _142  and  _143
REMARK   63  A    between atoms: _143  and  _144
REMARK   64  A    between atoms: _148  and  _150
REMARK   65  A    between atoms: _150  and  _151
REMARK   66  A    between atoms: _150  and  _153
REMARK   67  A    between atoms: _153  and  _154
REMARK   68  A    between atoms: _157  and  _159
REMARK   69  A    between atoms: _159  and  _160
REMARK   70  A    between atoms: _159  and  _162
REMARK   71  A    between atoms: _162  and  _163
REMARK   72  A    between atoms: _166  and  _168
REMARK   73  A    between atoms: _168  and  _169
REMARK   74  A    between atoms: _168  and  _171
REMARK   75  A    between atoms: _171  and  _172
REMARK   76  A    between atoms: _175  and  _177
REMARK   77  A    between atoms: _177  and  _178
REMARK   78  A    between atoms: _177  and  _180
REMARK   79  A    between atoms: _180  and  _181
REMARK   80  A    between atoms: _181  and  _182
REMARK   81  A    between atoms: _182  and  _183
REMARK   82  A    between atoms: _183  and  _184
REMARK   83  A    between atoms: _188  and  _190
REMARK   84  A    between atoms: _190  and  _191
REMARK   85  A    between atoms: _190  and  _193
REMARK   86  A    between atoms: _196  and  _198
REMARK   87  A    between atoms: _198  and  _199
REMARK   88  A    between atoms: _198  and  _201
REMARK   89  A    between atoms: _201  and  _202
REMARK   90  A    between atoms: _205  and  _207
REMARK   91  A    between atoms: _207  and  _208
REMARK   92  A    between atoms: _207  and  _210
REMARK   93  A    between atoms: _210  and  _211
REMARK   94  A    between atoms: _211  and  _212
REMARK   95  A    between atoms: _217  and  _219
REMARK   96  A    between atoms: _219  and  _220
REMARK   97  A    between atoms: _219  and  _222
REMARK   98  A    between atoms: _222  and  _223
REMARK   99  A    between atoms: _228  and  _230
REMARK  100  A    between atoms: _230  and  _231
REMARK  101  A    between atoms: _230  and  _233
REMARK  102  A    between atoms: _233  and  _234
REMARK  103  A    between atoms: _237  and  _239
REMARK  104  A    between atoms: _239  and  _240
REMARK  105  A    between atoms: _239  and  _242
REMARK  106  A    between atoms: _242  and  _243
REMARK  107  A    between atoms: _243  and  _244
REMARK  108  A    between atoms: _247  and  _249
REMARK  109  A    between atoms: _249  and  _250
REMARK  110  A    between atoms: _249  and  _252
REMARK  111  A    between atoms: _252  and  _253
REMARK  112  A    between atoms: _256  and  _258
REMARK  113  A    between atoms: _258  and  _259
REMARK  114  A    between atoms: _258  and  _261
REMARK  115  A    between atoms: _264  and  _266
REMARK  116  A    between atoms: _266  and  _267
REMARK  117  A    between atoms: _266  and  _269
REMARK  118  A    between atoms: _269  and  _270
REMARK  119  A    between atoms: _270  and  _271
REMARK  120  A    between atoms: _271  and  _272
REMARK  121  A    between atoms: _272  and  _273
REMARK  122  A    between atoms: _277  and  _279
REMARK  123  A    between atoms: _279  and  _280
REMARK  124  A    between atoms: _279  and  _282
REMARK  125  A    between atoms: _282  and  _283
REMARK  126  A    between atoms: _286  and  _288
REMARK  127  A    between atoms: _288  and  _289
REMARK  128  A    between atoms: _288  and  _291
REMARK  129  A    between atoms: _291  and  _292
REMARK  130  A    between atoms: _292  and  _293
REMARK  131  A    between atoms: _296  and  _298
REMARK  132  A    between atoms: _298  and  _299
REMARK  133  A    between atoms: _298  and  _301
REMARK  134  A    between atoms: _301  and  _302
REMARK  135  A    between atoms: _302  and  _303
REMARK  136  A    between atoms: _305  and  _307
REMARK  137  A    between atoms: _307  and  _308
REMARK  138  A    between atoms: _307  and  _310
REMARK  139  A    between atoms: _313  and  _315
REMARK  140  A    between atoms: _315  and  _316
REMARK  141  A    between atoms: _315  and  _318
REMARK  142  A    between atoms: _318  and  _319
REMARK  143  A    between atoms: _319  and  _320
REMARK  144  A    between atoms: _322  and  _324
REMARK  145  A    between atoms: _324  and  _325
REMARK  146  A    between atoms: _324  and  _327
REMARK  147  A    between atoms: _327  and  _328
REMARK  148  A    between atoms: _328  and  _329
REMARK  149  A    between atoms: _332  and  _334
REMARK  150  A    between atoms: _334  and  _335
REMARK  151  A    between atoms: _334  and  _337
REMARK  152  A    between atoms: _337  and  _338
REMARK  153  A    between atoms: _343  and  _344
REMARK  154  A    between atoms: _346  and  _348
REMARK  155  A    between atoms: _348  and  _349
REMARK  156  A    between atoms: _348  and  _351
REMARK  157  A    between atoms: _355  and  _356
REMARK  158  A    between atoms: _361  and  _363
REMARK  159  A    between atoms: _363  and  _364
REMARK  160  A    between atoms: _366  and  _368
REMARK  161  A    between atoms: _368  and  _369
REMARK  162  A    between atoms: _371  and  _373
REMARK  163  A    between atoms: _373  and  _374
REMARK  164  A    between atoms: _373  and  _376
REMARK  165  A    between atoms: _376  and  _377
REMARK  166  A    between atoms: _377  and  _378
REMARK  167  A    between atoms: _381  and  _383
REMARK  168  A    between atoms: _383  and  _384
REMARK  169  A    between atoms: _383  and  _386
REMARK  170  A    between atoms: _386  and  _387
REMARK  171  A    between atoms: _387  and  _388
REMARK  172  A    between atoms: _390  and  _392
REMARK  173  A    between atoms: _392  and  _393
REMARK  174  A    between atoms: _392  and  _395
REMARK  175  A    between atoms: _395  and  _396
REMARK  176  A    between atoms: _402  and  _404
REMARK  177  A    between atoms: _404  and  _405
REMARK  178  A    between atoms: _404  and  _407
REMARK  179  A    between atoms: _407  and  _408
REMARK  180  A    between atoms: _410  and  _412
REMARK  181  A    between atoms: _412  and  _413
REMARK  182  A    between atoms: _412  and  _415
REMARK  183  A    between atoms: _415  and  _416
REMARK  184  A    between atoms: _419  and  _421
REMARK  185  A    between atoms: _421  and  _422
REMARK  186  A    between atoms: _421  and  _424
REMARK  187  A    between atoms: _424  and  _425
REMARK  188  A    between atoms: _425  and  _426
REMARK  189  A    between atoms: _426  and  _427
REMARK  190  A    between atoms: _436  and  _438
REMARK  191  A    between atoms: _438  and  _439
REMARK  192  A    between atoms: _438  and  _441
REMARK  193  A    between atoms: _441  and  _442
REMARK  194  A    between atoms: _447  and  _448
REMARK  195  A    between atoms: _450  and  _452
REMARK  196  A    between atoms: _452  and  _453
REMARK  197  A    between atoms: _452  and  _455
REMARK  198  A    between atoms: _455  and  _456
REMARK  199  A    between atoms: _459  and  _461
REMARK  200  A    between atoms: _461  and  _462
REMARK  201  A    between atoms: _461  and  _464
REMARK  202  A    between atoms: _464  and  _465
REMARK  203  A    between atoms: _468  and  _470
REMARK  204  A    between atoms: _470  and  _471
REMARK  205  A    between atoms: _470  and  _473
REMARK  206  A    between atoms: _473  and  _474
REMARK  207  A    between atoms: _474  and  _475
REMARK  208  A    between atoms: _475  and  _476
REMARK  209  A    between atoms: _476  and  _477
REMARK  210  A    between atoms: _482  and  _483
REMARK  211  A    between atoms: _488  and  _490
REMARK  212  A    between atoms: _490  and  _491
REMARK  213  A    between atoms: _490  and  _493
REMARK  214  A    between atoms: _493  and  _494
REMARK  215  A    between atoms: _494  and  _495
REMARK  216  A    between atoms: _498  and  _500
REMARK  217  A    between atoms: _500  and  _501
REMARK  218  A    between atoms: _500  and  _503
REMARK  219  A    between atoms: _503  and  _504
REMARK  220  A    between atoms: _509  and  _511
REMARK  221  A    between atoms: _511  and  _512
REMARK  222  A    between atoms: _511  and  _514
REMARK  223  A    between atoms: _514  and  _515
REMARK  224  A    between atoms: _518  and  _520
REMARK  225  A    between atoms: _520  and  _521
REMARK  226  A    between atoms: _520  and  _523
REMARK  227  A    between atoms: _523  and  _524
REMARK  228  A    between atoms: _527  and  _529
REMARK  229  A    between atoms: _529  and  _530
REMARK  230  A    between atoms: _529  and  _532
REMARK  231  A    between atoms: _532  and  _533
REMARK  232  A    between atoms: _536  and  _538
REMARK  233  A    between atoms: _538  and  _539
REMARK  234  A    between atoms: _538  and  _541
REMARK  235  A    between atoms: _541  and  _542
REMARK  236  A    between atoms: _542  and  _543
REMARK  237  A    between atoms: _548  and  _550
REMARK  238  A    between atoms: _550  and  _551
REMARK  239  A    between atoms: _550  and  _553
REMARK  240  A    between atoms: _556  and  _558
REMARK  241  A    between atoms: _558  and  _559
REMARK  242  A    between atoms: _558  and  _561
REMARK  243  A    between atoms: _561  and  _562
REMARK  244  A    between atoms: _565  and  _567
REMARK  245  A    between atoms: _567  and  _568
REMARK  246  A    between atoms: _567  and  _570
REMARK  247  A    between atoms: _570  and  _571
REMARK  248  A    between atoms: _574  and  _576
REMARK  249  A    between atoms: _576  and  _577
REMARK  250  A    between atoms: _576  and  _579
REMARK  251  A    between atoms: _579  and  _580
REMARK  252  A    between atoms: _586  and  _588
REMARK  253  A    between atoms: _588  and  _589
REMARK  254  A    between atoms: _591  and  _593
REMARK  255  A    between atoms: _593  and  _594
REMARK  256  A    between atoms: _593  and  _596
REMARK  257  A    between atoms: _596  and  _597
REMARK  258  A    between atoms: _603  and  _605
REMARK  259  A    between atoms: _605  and  _606
REMARK  260  A    between atoms: _605  and  _608
REMARK  261  A    between atoms: _610  and  _612
REMARK  262  A    between atoms: _612  and  _613
REMARK  263  A    between atoms: _615  and  _617
REMARK  264  A    between atoms: _617  and  _618
REMARK  265  A    between atoms: _617  and  _620
REMARK  266  A    between atoms: _620  and  _621
REMARK  267  A    between atoms: _625  and  _626
REMARK  268  A    between atoms: _631  and  _633
REMARK  269  A    between atoms: _633  and  _634
REMARK  270  A    between atoms: _633  and  _636
REMARK  271  A    between atoms: _636  and  _637
REMARK  272  A    between atoms: _637  and  _638
REMARK  273  A    between atoms: _641  and  _643
REMARK  274  A    between atoms: _643  and  _644
REMARK  275  A    between atoms: _643  and  _646
REMARK  276  A    between atoms: _646  and  _647
REMARK  277  A    between atoms: _652  and  _653
REMARK  278  A    between atoms: _655  and  _657
REMARK  279  A    between atoms: _657  and  _658
REMARK  280  A    between atoms: _657  and  _660
REMARK  281  A    between atoms: _663  and  _665
REMARK  282  A    between atoms: _665  and  _666
REMARK  283  A    between atoms: _665  and  _668
REMARK  284  A    between atoms: _668  and  _669
REMARK  285  A    between atoms: _672  and  _674
REMARK  286  A    between atoms: _674  and  _675
REMARK  287  A    between atoms: _674  and  _677
REMARK  288  A    between atoms: _677  and  _678
REMARK  289  A    between atoms: _678  and  _679
REMARK  290  A    between atoms: _682  and  _684
REMARK  291  A    between atoms: _684  and  _685
REMARK  292  A    between atoms: _684  and  _687
REMARK  293  A    between atoms: _687  and  _688
REMARK  294  A    between atoms: _688  and  _689
REMARK  295  A    between atoms: _691  and  _693
REMARK  296  A    between atoms: _693  and  _694
REMARK  297  A    between atoms: _696  and  _698
REMARK  298  A    between atoms: _698  and  _699
REMARK  299  A    between atoms: _698  and  _701
REMARK  300  A    between atoms: _701  and  _702
REMARK  301  A    between atoms: _707  and  _708
REMARK  302  A    between atoms: _711  and  _712
REMARK  303  A    between atoms: _718  and  _719
REMARK  304  A    between atoms: _724  and  _726
REMARK  305  A    between atoms: _726  and  _727
REMARK  306  A    between atoms: _726  and  _729
REMARK  307  A    between atoms: _729  and  _730
REMARK  308  A    between atoms: _736  and  _738
REMARK  309  A    between atoms: _738  and  _739
REMARK  310  A    between atoms: _738  and  _741
REMARK  311  A    between atoms: _741  and  _742
REMARK  312  A    between atoms: _748  and  _750
REMARK  313  A    between atoms: _750  and  _751
REMARK  314  A    between atoms: _750  and  _753
REMARK  315  A    between atoms: _753  and  _754
REMARK  316  A    between atoms: _757  and  _759
REMARK  317  A    between atoms: _759  and  _760
REMARK  318  A    between atoms: _759  and  _762
REMARK  319  A    between atoms: _762  and  _763
REMARK  320  A    between atoms: _768  and  _770
REMARK  321  A    between atoms: _770  and  _771
REMARK  322  A    between atoms: _770  and  _773
REMARK  323  A    between atoms: _773  and  _774
REMARK  324  A    between atoms: _780  and  _782
REMARK  325  A    between atoms: _782  and  _783
REMARK  326  A    between atoms: _782  and  _785
REMARK  327  A    between atoms: _785  and  _786
REMARK  328  A    between atoms: _789  and  _791
REMARK  329  A    between atoms: _791  and  _792
REMARK  330  A    between atoms: _791  and  _794
REMARK  331  A    between atoms: _794  and  _795
REMARK  332  A    between atoms: _800  and  _801
REMARK                            x       y       z     vdW  Elec       q    Type
REMARK                         _______ _______ _______ _____ _____    ______ ____
ROOT
ATOM      1  O   HOH     1     -22.128   3.012  14.520  0.00  0.00    +0.000 OA
ENDROOT
TORSDOF 0
REMARK  Name = ../refined-set-2016/3agl/3agl_pocket.pdb
REMARK  332 active torsions:
REMARK  status: ('A' for Active; 'I' for Inactive)
REMARK    1  A    between atoms: _1  and  _3
REMARK    2  A    between atoms: _3  and  _4
REMARK    3  A    between atoms: _3  and  _6
REMARK    4  A    between atoms: _6  and  _7
REMARK    5  A    between atoms: _10  and  _12
REMARK    6  A    between atoms: _12  and  _13
REMARK    7  A    between atoms: _12  and  _15
REMARK    8  A    between atoms: _15  and  _16
REMARK    9  A    between atoms: _19  and  _21
REMARK   10  A    between atoms: _21  and  _22
REMARK   11  A    between atoms: _24  and  _26
REMARK   12  A    between atoms: _26  and  _27
REMARK   13  A    between atoms: _26  and  _29
REMARK   14  A    between atoms: _29  and  _30
REMARK   15  A    between atoms: _33  and  _35
REMARK   16  A    between atoms: _35  and  _36
REMARK   17  A    between atoms: _38  and  _40
REMARK   18  A    between atoms: _40  and  _41
REMARK   19  A    between atoms: _40  and  _43
REMARK   20  A    between atoms: _43  and  _44
REMARK   21  A    between atoms: _46  and  _48
REMARK   22  A    between atoms: _48  and  _49
REMARK   23  A    between atoms: _48  and  _51
REMARK   24  A    between atoms: _51  and  _52
REMARK   25  A    between atoms: _58  and  _60
REMARK   26  A    between atoms: _60  and  _61
REMARK   27  A    between atoms: _63  and  _65
REMARK   28  A    between atoms: _65  and  _66
REMARK   29  A    between atoms: _65  and  _68
REMARK   30  A    between atoms: _68  and  _69
REMARK   31  A    between atoms: _69  and  _70
REMARK   32  A    between atoms: _70  and  _71
REMARK   33  A    between atoms: _80  and  _82
REMARK   34  A    between atoms: _82  and  _83
REMARK   35  A    between atoms: _82  and  _85
REMARK   36  A    between atoms: _88  and  _90
REMARK   37  A    between atoms: _90  and  _91
REMARK   38  A    between atoms: _90  and  _93
REMARK   39  A    between atoms: _93  and  _94
REMARK   40  A    between atoms: _94  and  _95
REMARK   41  A    between atoms: _97  and  _99
REMARK   42  A    between atoms: _99  and  _100
REMARK   43  A    between atoms: _99  and  _102
REMARK   44  A    between atoms: _102  and  _103
REMARK   45  A    between atoms: _106  and  _108
REMARK   46  A    between atoms: _108  and  _109
REMARK   47  A    between atoms: _108  and  _111
REMARK   48  A    between atoms: _111  and  _112
REMARK   49  A    between atoms: _117  and  _118
REMARK   50  A    between atoms: _120  and  _122
REMARK   51  A    between atoms: _122  and  _123
REMARK   52  A    between atoms: _126  and  _128
REMARK   53  A    between atoms: _128  and  _129
REMARK   54  A    between atoms: _128  and  _131
REMARK   55  A    between atoms: _131  and  _132
REMARK   56  A    between atoms: _132  and  _133
REMARK   57  A    between atoms: _135  and  _137
REMARK   58  A    between atoms: _137  and  _138
REMARK   59  A    between atoms: _137  and  _140
REMARK   60  A    between atoms: _140  and  _141
REMARK   61  A    between atoms: _141  and  _142
REMARK   62  A    between atoms: _142  and  _143
REMARK   63  A    between atoms: _143  and  _144
REMARK   64  A    between atoms: _148  and  _150
REMARK   65  A    between atoms: _150  and  _151
REMARK   66  A    between atoms: _150  and  _153
REMARK   67  A    between atoms: _153  and  _154
REMARK   68  A    between atoms: _157  and  _159
REMARK   69  A    between atoms: _159  and  _160
REMARK   70  A    between atoms: _159  and  _162
REMARK   71  A    between atoms: _162  and  _163
REMARK   72  A    between atoms: _166  and  _168
REMARK   73  A    between atoms: _168  and  _169
REMARK   74  A    between atoms: _168  and  _171
REMARK   75  A    between atoms: _171  and  _172
REMARK   76  A    between atoms: _175  and  _177
REMARK   77  A    between atoms: _177  and  _178
REMARK   78  A    between atoms: _177  and  _180
REMARK   79  A    between atoms: _180  and  _181
REMARK   80  A    between atoms: _181  and  _182
REMARK   81  A    between atoms: _182  and  _183
REMARK   82  A    between atoms: _183  and  _184
REMARK   83  A    between atoms: _188  and  _190
REMARK   84  A    between atoms: _190  and  _191
REMARK   85  A    between atoms: _190  and  _193
REMARK   86  A    between atoms: _196  and  _198
REMARK   87  A    between atoms: _198  and  _199
REMARK   88  A    between atoms: _198  and  _201
REMARK   89  A    between atoms: _201  and  _202
REMARK   90  A    between atoms: _205  and  _207
REMARK   91  A    between atoms: _207  and  _208
REMARK   92  A    between atoms: _207  and  _210
REMARK   93  A    between atoms: _210  and  _211
REMARK   94  A    between atoms: _211  and  _212
REMARK   95  A    between atoms: _217  and  _219
REMARK   96  A    between atoms: _219  and  _220
REMARK   97  A    between atoms: _219  and  _222
REMARK   98  A    between atoms: _222  and  _223
REMARK   99  A    between atoms: _228  and  _230
REMARK  100  A    between atoms: _230  and  _231
REMARK  101  A    between atoms: _230  and  _233
REMARK  102  A    between atoms: _233  and  _234
REMARK  103  A    between atoms: _237  and  _239
REMARK  104  A    between atoms: _239  and  _240
REMARK  105  A    between atoms: _239  and  _242
REMARK  106  A    between atoms: _242  and  _243
REMARK  107  A    between atoms: _243  and  _244
REMARK  108  A    between atoms: _247  and  _249
REMARK  109  A    between atoms: _249  and  _250
REMARK  110  A    between atoms: _249  and  _252
REMARK  111  A    between atoms: _252  and  _253
REMARK  112  A    between atoms: _256  and  _258
REMARK  113  A    between atoms: _258  and  _259
REMARK  114  A    between atoms: _258  and  _261
REMARK  115  A    between atoms: _264  and  _266
REMARK  116  A    between atoms: _266  and  _267
REMARK  117  A    between atoms: _266  and  _269
REMARK  118  A    between atoms: _269  and  _270
REMARK  119  A    between atoms: _270  and  _271
REMARK  120  A    between atoms: _271  and  _272
REMARK  121  A    between atoms: _272  and  _273
REMARK  122  A    between atoms: _277  and  _279
REMARK  123  A    between atoms: _279  and  _280
REMARK  124  A    between atoms: _279  and  _282
REMARK  125  A    between atoms: _282  and  _283
REMARK  126  A    between atoms: _286  and  _288
REMARK  127  A    between atoms: _288  and  _289
REMARK  128  A    between atoms: _288  and  _291
REMARK  129  A    between atoms: _291  and  _292
REMARK  130  A    between atoms: _292  and  _293
REMARK  131  A    between atoms: _296  and  _298
REMARK  132  A    between atoms: _298  and  _299
REMARK  133  A    between atoms: _298  and  _301
REMARK  134  A    between atoms: _301  and  _302
REMARK  135  A    between atoms: _302  and  _303
REMARK  136  A    between atoms: _305  and  _307
REMARK  137  A    between atoms: _307  and  _308
REMARK  138  A    between atoms: _307  and  _310
REMARK  139  A    between atoms: _313  and  _315
REMARK  140  A    between atoms: _315  and  _316
REMARK  141  A    between atoms: _315  and  _318
REMARK  142  A    between atoms: _318  and  _319
REMARK  143  A    between atoms: _319  and  _320
REMARK  144  A    between atoms: _322  and  _324
REMARK  145  A    between atoms: _324  and  _325
REMARK  146  A    between atoms: _324  and  _327
REMARK  147  A    between atoms: _327  and  _328
REMARK  148  A    between atoms: _328  and  _329
REMARK  149  A    between atoms: _332  and  _334
REMARK  150  A    between atoms: _334  and  _335
REMARK  151  A    between atoms: _334  and  _337
REMARK  152  A    between atoms: _337  and  _338
REMARK  153  A    between atoms: _343  and  _344
REMARK  154  A    between atoms: _346  and  _348
REMARK  155  A    between atoms: _348  and  _349
REMARK  156  A    between atoms: _348  and  _351
REMARK  157  A    between atoms: _355  and  _356
REMARK  158  A    between atoms: _361  and  _363
REMARK  159  A    between atoms: _363  and  _364
REMARK  160  A    between atoms: _366  and  _368
REMARK  161  A    between atoms: _368  and  _369
REMARK  162  A    between atoms: _371  and  _373
REMARK  163  A    between atoms: _373  and  _374
REMARK  164  A    between atoms: _373  and  _376
REMARK  165  A    between atoms: _376  and  _377
REMARK  166  A    between atoms: _377  and  _378
REMARK  167  A    between atoms: _381  and  _383
REMARK  168  A    between atoms: _383  and  _384
REMARK  169  A    between atoms: _383  and  _386
REMARK  170  A    between atoms: _386  and  _387
REMARK  171  A    between atoms: _387  and  _388
REMARK  172  A    between atoms: _390  and  _392
REMARK  173  A    between atoms: _392  and  _393
REMARK  174  A    between atoms: _392  and  _395
REMARK  175  A    between atoms: _395  and  _396
REMARK  176  A    between atoms: _402  and  _404
REMARK  177  A    between atoms: _404  and  _405
REMARK  178  A    between atoms: _404  and  _407
REMARK  179  A    between atoms: _407  and  _408
REMARK  180  A    between atoms: _410  and  _412
REMARK  181  A    between atoms: _412  and  _413
REMARK  182  A    between atoms: _412  and  _415
REMARK  183  A    between atoms: _415  and  _416
REMARK  184  A    between atoms: _419  and  _421
REMARK  185  A    between atoms: _421  and  _422
REMARK  186  A    between atoms: _421  and  _424
REMARK  187  A    between atoms: _424  and  _425
REMARK  188  A    between atoms: _425  and  _426
REMARK  189  A    between atoms: _426  and  _427
REMARK  190  A    between atoms: _436  and  _438
REMARK  191  A    between atoms: _438  and  _439
REMARK  192  A    between atoms: _438  and  _441
REMARK  193  A    between atoms: _441  and  _442
REMARK  194  A    between atoms: _447  and  _448
REMARK  195  A    between atoms: _450  and  _452
REMARK  196  A    between atoms: _452  and  _453
REMARK  197  A    between atoms: _452  and  _455
REMARK  198  A    between atoms: _455  and  _456
REMARK  199  A    between atoms: _459  and  _461
REMARK  200  A    between atoms: _461  and  _462
REMARK  201  A    between atoms: _461  and  _464
REMARK  202  A    between atoms: _464  and  _465
REMARK  203  A    between atoms: _468  and  _470
REMARK  204  A    between atoms: _470  and  _471
REMARK  205  A    between atoms: _470  and  _473
REMARK  206  A    between atoms: _473  and  _474
REMARK  207  A    between atoms: _474  and  _475
REMARK  208  A    between atoms: _475  and  _476
REMARK  209  A    between atoms: _476  and  _477
REMARK  210  A    between atoms: _482  and  _483
REMARK  211  A    between atoms: _488  and  _490
REMARK  212  A    between atoms: _490  and  _491
REMARK  213  A    between atoms: _490  and  _493
REMARK  214  A    between atoms: _493  and  _494
REMARK  215  A    between atoms: _494  and  _495
REMARK  216  A    between atoms: _498  and  _500
REMARK  217  A    between atoms: _500  and  _501
REMARK  218  A    between atoms: _500  and  _503
REMARK  219  A    between atoms: _503  and  _504
REMARK  220  A    between atoms: _509  and  _511
REMARK  221  A    between atoms: _511  and  _512
REMARK  222  A    between atoms: _511  and  _514
REMARK  223  A    between atoms: _514  and  _515
REMARK  224  A    between atoms: _518  and  _520
REMARK  225  A    between atoms: _520  and  _521
REMARK  226  A    between atoms: _520  and  _523
REMARK  227  A    between atoms: _523  and  _524
REMARK  228  A    between atoms: _527  and  _529
REMARK  229  A    between atoms: _529  and  _530
REMARK  230  A    between atoms: _529  and  _532
REMARK  231  A    between atoms: _532  and  _533
REMARK  232  A    between atoms: _536  and  _538
REMARK  233  A    between atoms: _538  and  _539
REMARK  234  A    between atoms: _538  and  _541
REMARK  235  A    between atoms: _541  and  _542
REMARK  236  A    between atoms: _542  and  _543
REMARK  237  A    between atoms: _548  and  _550
REMARK  238  A    between atoms: _550  and  _551
REMARK  239  A    between atoms: _550  and  _553
REMARK  240  A    between atoms: _556  and  _558
REMARK  241  A    between atoms: _558  and  _559
REMARK  242  A    between atoms: _558  and  _561
REMARK  243  A    between atoms: _561  and  _562
REMARK  244  A    between atoms: _565  and  _567
REMARK  245  A    between atoms: _567  and  _568
REMARK  246  A    between atoms: _567  and  _570
REMARK  247  A    between atoms: _570  and  _571
REMARK  248  A    between atoms: _574  and  _576
REMARK  249  A    between atoms: _576  and  _577
REMARK  250  A    between atoms: _576  and  _579
REMARK  251  A    between atoms: _579  and  _580
REMARK  252  A    between atoms: _586  and  _588
REMARK  253  A    between atoms: _588  and  _589
REMARK  254  A    between atoms: _591  and  _593
REMARK  255  A    between atoms: _593  and  _594
REMARK  256  A    between atoms: _593  and  _596
REMARK  257  A    between atoms: _596  and  _597
REMARK  258  A    between atoms: _603  and  _605
REMARK  259  A    between atoms: _605  and  _606
REMARK  260  A    between atoms: _605  and  _608
REMARK  261  A    between atoms: _610  and  _612
REMARK  262  A    between atoms: _612  and  _613
REMARK  263  A    between atoms: _615  and  _617
REMARK  264  A    between atoms: _617  and  _618
REMARK  265  A    between atoms: _617  and  _620
REMARK  266  A    between atoms: _620  and  _621
REMARK  267  A    between atoms: _625  and  _626
REMARK  268  A    between atoms: _631  and  _633
REMARK  269  A    between atoms: _633  and  _634
REMARK  270  A    between atoms: _633  and  _636
REMARK  271  A    between atoms: _636  and  _637
REMARK  272  A    between atoms: _637  and  _638
REMARK  273  A    between atoms: _641  and  _643
REMARK  274  A    between atoms: _643  and  _644
REMARK  275  A    between atoms: _643  and  _646
REMARK  276  A    between atoms: _646  and  _647
REMARK  277  A    between atoms: _652  and  _653
REMARK  278  A    between atoms: _655  and  _657
REMARK  279  A    between atoms: _657  and  _658
REMARK  280  A    between atoms: _657  and  _660
REMARK  281  A    between atoms: _663  and  _665
REMARK  282  A    between atoms: _665  and  _666
REMARK  283  A    between atoms: _665  and  _668
REMARK  284  A    between atoms: _668  and  _669
REMARK  285  A    between atoms: _672  and  _674
REMARK  286  A    between atoms: _674  and  _675
REMARK  287  A    between atoms: _674  and  _677
REMARK  288  A    between atoms: _677  and  _678
REMARK  289  A    between atoms: _678  and  _679
REMARK  290  A    between atoms: _682  and  _684
REMARK  291  A    between atoms: _684  and  _685
REMARK  292  A    between atoms: _684  and  _687
REMARK  293  A    between atoms: _687  and  _688
REMARK  294  A    between atoms: _688  and  _689
REMARK  295  A    between atoms: _691  and  _693
REMARK  296  A    between atoms: _693  and  _694
REMARK  297  A    between atoms: _696  and  _698
REMARK  298  A    between atoms: _698  and  _699
REMARK  299  A    between atoms: _698  and  _701
REMARK  300  A    between atoms: _701  and  _702
REMARK  301  A    between atoms: _707  and  _708
REMARK  302  A    between atoms: _711  and  _712
REMARK  303  A    between atoms: _718  and  _719
REMARK  304  A    between atoms: _724  and  _726
REMARK  305  A    between atoms: _726  and  _727
REMARK  306  A    between atoms: _726  and  _729
REMARK  307  A    between atoms: _729  and  _730
REMARK  308  A    between atoms: _736  and  _738
REMARK  309  A    between atoms: _738  and  _739
REMARK  310  A    between atoms: _738  and  _741
REMARK  311  A    between atoms: _741  and  _742
REMARK  312  A    between atoms: _748  and  _750
REMARK  313  A    between atoms: _750  and  _751
REMARK  314  A    between atoms: _750  and  _753
REMARK  315  A    between atoms: _753  and  _754
REMARK  316  A    between atoms: _757  and  _759
REMARK  317  A    between atoms: _759  and  _760
REMARK  318  A    between atoms: _759  and  _762
REMARK  319  A    between atoms: _762  and  _763
REMARK  320  A    between atoms: _768  and  _770
REMARK  321  A    between atoms: _770  and  _771
REMARK  322  A    between atoms: _770  and  _773
REMARK  323  A    between atoms: _773  and  _774
REMARK  324  A    between atoms: _780  and  _782
REMARK  325  A    between atoms: _782  and  _783
REMARK  326  A    between atoms: _782  and  _785
REMARK  327  A    between atoms: _785  and  _786
REMARK  328  A    between atoms: _789  and  _791
REMARK  329  A    between atoms: _791  and  _792
REMARK  330  A    between atoms: _791  and  _794
REMARK  331  A    between atoms: _794  and  _795
REMARK  332  A    between atoms: _800  and  _801
REMARK                            x       y       z     vdW  Elec       q    Type
REMARK                         _______ _______ _______ _____ _____    ______ ____
ROOT
ATOM      1  O   HOH     1     -25.583   4.380   7.011  0.00  0.00    +0.000 OA
ENDROOT
TORSDOF 0
REMARK  Name = ../refined-set-2016/3agl/3agl_pocket.pdb
REMARK  332 active torsions:
REMARK  status: ('A' for Active; 'I' for Inactive)
REMARK    1  A    between atoms: _1  and  _3
REMARK    2  A    between atoms: _3  and  _4
REMARK    3  A    between atoms: _3  and  _6
REMARK    4  A    between atoms: _6  and  _7
REMARK    5  A    between atoms: _10  and  _12
REMARK    6  A    between atoms: _12  and  _13
REMARK    7  A    between atoms: _12  and  _15
REMARK    8  A    between atoms: _15  and  _16
REMARK    9  A    between atoms: _19  and  _21
REMARK   10  A    between atoms: _21  and  _22
REMARK   11  A    between atoms: _24  and  _26
REMARK   12  A    between atoms: _26  and  _27
REMARK   13  A    between atoms: _26  and  _29
REMARK   14  A    between atoms: _29  and  _30
REMARK   15  A    between atoms: _33  and  _35
REMARK   16  A    between atoms: _35  and  _36
REMARK   17  A    between atoms: _38  and  _40
REMARK   18  A    between atoms: _40  and  _41
REMARK   19  A    between atoms: _40  and  _43
REMARK   20  A    between atoms: _43  and  _44
REMARK   21  A    between atoms: _46  and  _48
REMARK   22  A    between atoms: _48  and  _49
REMARK   23  A    between atoms: _48  and  _51
REMARK   24  A    between atoms: _51  and  _52
REMARK   25  A    between atoms: _58  and  _60
REMARK   26  A    between atoms: _60  and  _61
REMARK   27  A    between atoms: _63  and  _65
REMARK   28  A    between atoms: _65  and  _66
REMARK   29  A    between atoms: _65  and  _68
REMARK   30  A    between atoms: _68  and  _69
REMARK   31  A    between atoms: _69  and  _70
REMARK   32  A    between atoms: _70  and  _71
REMARK   33  A    between atoms: _80  and  _82
REMARK   34  A    between atoms: _82  and  _83
REMARK   35  A    between atoms: _82  and  _85
REMARK   36  A    between atoms: _88  and  _90
REMARK   37  A    between atoms: _90  and  _91
REMARK   38  A    between atoms: _90  and  _93
REMARK   39  A    between atoms: _93  and  _94
REMARK   40  A    between atoms: _94  and  _95
REMARK   41  A    between atoms: _97  and  _99
REMARK   42  A    between atoms: _99  and  _100
REMARK   43  A    between atoms: _99  and  _102
REMARK   44  A    between atoms: _102  and  _103
REMARK   45  A    between atoms: _106  and  _108
REMARK   46  A    between atoms: _108  and  _109
REMARK   47  A    between atoms: _108  and  _111
REMARK   48  A    between atoms: _111  and  _112
REMARK   49  A    between atoms: _117  and  _118
REMARK   50  A    between atoms: _120  and  _122
REMARK   51  A    between atoms: _122  and  _123
REMARK   52  A    between atoms: _126  and  _128
REMARK   53  A    between atoms: _128  and  _129
REMARK   54  A    between atoms: _128  and  _131
REMARK   55  A    between atoms: _131  and  _132
REMARK   56  A    between atoms: _132  and  _133
REMARK   57  A    between atoms: _135  and  _137
REMARK   58  A    between atoms: _137  and  _138
REMARK   59  A    between atoms: _137  and  _140
REMARK   60  A    between atoms: _140  and  _141
REMARK   61  A    between atoms: _141  and  _142
REMARK   62  A    between atoms: _142  and  _143
REMARK   63  A    between atoms: _143  and  _144
REMARK   64  A    between atoms: _148  and  _150
REMARK   65  A    between atoms: _150  and  _151
REMARK   66  A    between atoms: _150  and  _153
REMARK   67  A    between atoms: _153  and  _154
REMARK   68  A    between atoms: _157  and  _159
REMARK   69  A    between atoms: _159  and  _160
REMARK   70  A    between atoms: _159  and  _162
REMARK   71  A    between atoms: _162  and  _163
REMARK   72  A    between atoms: _166  and  _168
REMARK   73  A    between atoms: _168  and  _169
REMARK   74  A    between atoms: _168  and  _171
REMARK   75  A    between atoms: _171  and  _172
REMARK   76  A    between atoms: _175  and  _177
REMARK   77  A    between atoms: _177  and  _178
REMARK   78  A    between atoms: _177  and  _180
REMARK   79  A    between atoms: _180  and  _181
REMARK   80  A    between atoms: _181  and  _182
REMARK   81  A    between atoms: _182  and  _183
REMARK   82  A    between atoms: _183  and  _184
REMARK   83  A    between atoms: _188  and  _190
REMARK   84  A    between atoms: _190  and  _191
REMARK   85  A    between atoms: _190  and  _193
REMARK   86  A    between atoms: _196  and  _198
REMARK   87  A    between atoms: _198  and  _199
REMARK   88  A    between atoms: _198  and  _201
REMARK   89  A    between atoms: _201  and  _202
REMARK   90  A    between atoms: _205  and  _207
REMARK   91  A    between atoms: _207  and  _208
REMARK   92  A    between atoms: _207  and  _210
REMARK   93  A    between atoms: _210  and  _211
REMARK   94  A    between atoms: _211  and  _212
REMARK   95  A    between atoms: _217  and  _219
REMARK   96  A    between atoms: _219  and  _220
REMARK   97  A    between atoms: _219  and  _222
REMARK   98  A    between atoms: _222  and  _223
REMARK   99  A    between atoms: _228  and  _230
REMARK  100  A    between atoms: _230  and  _231
REMARK  101  A    between atoms: _230  and  _233
REMARK  102  A    between atoms: _233  and  _234
REMARK  103  A    between atoms: _237  and  _239
REMARK  104  A    between atoms: _239  and  _240
REMARK  105  A    between atoms: _239  and  _242
REMARK  106  A    between atoms: _242  and  _243
REMARK  107  A    between atoms: _243  and  _244
REMARK  108  A    between atoms: _247  and  _249
REMARK  109  A    between atoms: _249  and  _250
REMARK  110  A    between atoms: _249  and  _252
REMARK  111  A    between atoms: _252  and  _253
REMARK  112  A    between atoms: _256  and  _258
REMARK  113  A    between atoms: _258  and  _259
REMARK  114  A    between atoms: _258  and  _261
REMARK  115  A    between atoms: _264  and  _266
REMARK  116  A    between atoms: _266  and  _267
REMARK  117  A    between atoms: _266  and  _269
REMARK  118  A    between atoms: _269  and  _270
REMARK  119  A    between atoms: _270  and  _271
REMARK  120  A    between atoms: _271  and  _272
REMARK  121  A    between atoms: _272  and  _273
REMARK  122  A    between atoms: _277  and  _279
REMARK  123  A    between atoms: _279  and  _280
REMARK  124  A    between atoms: _279  and  _282
REMARK  125  A    between atoms: _282  and  _283
REMARK  126  A    between atoms: _286  and  _288
REMARK  127  A    between atoms: _288  and  _289
REMARK  128  A    between atoms: _288  and  _291
REMARK  129  A    between atoms: _291  and  _292
REMARK  130  A    between atoms: _292  and  _293
REMARK  131  A    between atoms: _296  and  _298
REMARK  132  A    between atoms: _298  and  _299
REMARK  133  A    between atoms: _298  and  _301
REMARK  134  A    between atoms: _301  and  _302
REMARK  135  A    between atoms: _302  and  _303
REMARK  136  A    between atoms: _305  and  _307
REMARK  137  A    between atoms: _307  and  _308
REMARK  138  A    between atoms: _307  and  _310
REMARK  139  A    between atoms: _313  and  _315
REMARK  140  A    between atoms: _315  and  _316
REMARK  141  A    between atoms: _315  and  _318
REMARK  142  A    between atoms: _318  and  _319
REMARK  143  A    between atoms: _319  and  _320
REMARK  144  A    between atoms: _322  and  _324
REMARK  145  A    between atoms: _324  and  _325
REMARK  146  A    between atoms: _324  and  _327
REMARK  147  A    between atoms: _327  and  _328
REMARK  148  A    between atoms: _328  and  _329
REMARK  149  A    between atoms: _332  and  _334
REMARK  150  A    between atoms: _334  and  _335
REMARK  151  A    between atoms: _334  and  _337
REMARK  152  A    between atoms: _337  and  _338
REMARK  153  A    between atoms: _343  and  _344
REMARK  154  A    between atoms: _346  and  _348
REMARK  155  A    between atoms: _348  and  _349
REMARK  156  A    between atoms: _348  and  _351
REMARK  157  A    between atoms: _355  and  _356
REMARK  158  A    between atoms: _361  and  _363
REMARK  159  A    between atoms: _363  and  _364
REMARK  160  A    between atoms: _366  and  _368
REMARK  161  A    between atoms: _368  and  _369
REMARK  162  A    between atoms: _371  and  _373
REMARK  163  A    between atoms: _373  and  _374
REMARK  164  A    between atoms: _373  and  _376
REMARK  165  A    between atoms: _376  and  _377
REMARK  166  A    between atoms: _377  and  _378
REMARK  167  A    between atoms: _381  and  _383
REMARK  168  A    between atoms: _383  and  _384
REMARK  169  A    between atoms: _383  and  _386
REMARK  170  A    between atoms: _386  and  _387
REMARK  171  A    between atoms: _387  and  _388
REMARK  172  A    between atoms: _390  and  _392
REMARK  173  A    between atoms: _392  and  _393
REMARK  174  A    between atoms: _392  and  _395
REMARK  175  A    between atoms: _395  and  _396
REMARK  176  A    between atoms: _402  and  _404
REMARK  177  A    between atoms: _404  and  _405
REMARK  178  A    between atoms: _404  and  _407
REMARK  179  A    between atoms: _407  and  _408
REMARK  180  A    between atoms: _410  and  _412
REMARK  181  A    between atoms: _412  and  _413
REMARK  182  A    between atoms: _412  and  _415
REMARK  183  A    between atoms: _415  and  _416
REMARK  184  A    between atoms: _419  and  _421
REMARK  185  A    between atoms: _421  and  _422
REMARK  186  A    between atoms: _421  and  _424
REMARK  187  A    between atoms: _424  and  _425
REMARK  188  A    between atoms: _425  and  _426
REMARK  189  A    between atoms: _426  and  _427
REMARK  190  A    between atoms: _436  and  _438
REMARK  191  A    between atoms: _438  and  _439
REMARK  192  A    between atoms: _438  and  _441
REMARK  193  A    between atoms: _441  and  _442
REMARK  194  A    between atoms: _447  and  _448
REMARK  195  A    between atoms: _450  and  _452
REMARK  196  A    between atoms: _452  and  _453
REMARK  197  A    between atoms: _452  and  _455
REMARK  198  A    between atoms: _455  and  _456
REMARK  199  A    between atoms: _459  and  _461
REMARK  200  A    between atoms: _461  and  _462
REMARK  201  A    between atoms: _461  and  _464
REMARK  202  A    between atoms: _464  and  _465
REMARK  203  A    between atoms: _468  and  _470
REMARK  204  A    between atoms: _470  and  _471
REMARK  205  A    between atoms: _470  and  _473
REMARK  206  A    between atoms: _473  and  _474
REMARK  207  A    between atoms: _474  and  _475
REMARK  208  A    between atoms: _475  and  _476
REMARK  209  A    between atoms: _476  and  _477
REMARK  210  A    between atoms: _482  and  _483
REMARK  211  A    between atoms: _488  and  _490
REMARK  212  A    between atoms: _490  and  _491
REMARK  213  A    between atoms: _490  and  _493
REMARK  214  A    between atoms: _493  and  _494
REMARK  215  A    between atoms: _494  and  _495
REMARK  216  A    between atoms: _498  and  _500
REMARK  217  A    between atoms: _500  and  _501
REMARK  218  A    between atoms: _500  and  _503
REMARK  219  A    between atoms: _503  and  _504
REMARK  220  A    between atoms: _509  and  _511
REMARK  221  A    between atoms: _511  and  _512
REMARK  222  A    between atoms: _511  and  _514
REMARK  223  A    between atoms: _514  and  _515
REMARK  224  A    between atoms: _518  and  _520
REMARK  225  A    between atoms: _520  and  _521
REMARK  226  A    between atoms: _520  and  _523
REMARK  227  A    between atoms: _523  and  _524
REMARK  228  A    between atoms: _527  and  _529
REMARK  229  A    between atoms: _529  and  _530
REMARK  230  A    between atoms: _529  and  _532
REMARK  231  A    between atoms: _532  and  _533
REMARK  232  A    between atoms: _536  and  _538
REMARK  233  A    between atoms: _538  and  _539
REMARK  234  A    between atoms: _538  and  _541
REMARK  235  A    between atoms: _541  and  _542
REMARK  236  A    between atoms: _542  and  _543
REMARK  237  A    between atoms: _548  and  _550
REMARK  238  A    between atoms: _550  and  _551
REMARK  239  A    between atoms: _550  and  _553
REMARK  240  A    between atoms: _556  and  _558
REMARK  241  A    between atoms: _558  and  _559
REMARK  242  A    between atoms: _558  and  _561
REMARK  243  A    between atoms: _561  and  _562
REMARK  244  A    between atoms: _565  and  _567
REMARK  245  A    between atoms: _567  and  _568
REMARK  246  A    between atoms: _567  and  _570
REMARK  247  A    between atoms: _570  and  _571
REMARK  248  A    between atoms: _574  and  _576
REMARK  249  A    between atoms: _576  and  _577
REMARK  250  A    between atoms: _576  and  _579
REMARK  251  A    between atoms: _579  and  _580
REMARK  252  A    between atoms: _586  and  _588
REMARK  253  A    between atoms: _588  and  _589
REMARK  254  A    between atoms: _591  and  _593
REMARK  255  A    between atoms: _593  and  _594
REMARK  256  A    between atoms: _593  and  _596
REMARK  257  A    between atoms: _596  and  _597
REMARK  258  A    between atoms: _603  and  _605
REMARK  259  A    between atoms: _605  and  _606
REMARK  260  A    between atoms: _605  and  _608
REMARK  261  A    between atoms: _610  and  _612
REMARK  262  A    between atoms: _612  and  _613
REMARK  263  A    between atoms: _615  and  _617
REMARK  264  A    between atoms: _617  and  _618
REMARK  265  A    between atoms: _617  and  _620
REMARK  266  A    between atoms: _620  and  _621
REMARK  267  A    between atoms: _625  and  _626
REMARK  268  A    between atoms: _631  and  _633
REMARK  269  A    between atoms: _633  and  _634
REMARK  270  A    between atoms: _633  and  _636
REMARK  271  A    between atoms: _636  and  _637
REMARK  272  A    between atoms: _637  and  _638
REMARK  273  A    between atoms: _641  and  _643
REMARK  274  A    between atoms: _643  and  _644
REMARK  275  A    between atoms: _643  and  _646
REMARK  276  A    between atoms: _646  and  _647
REMARK  277  A    between atoms: _652  and  _653
REMARK  278  A    between atoms: _655  and  _657
REMARK  279  A    between atoms: _657  and  _658
REMARK  280  A    between atoms: _657  and  _660
REMARK  281  A    between atoms: _663  and  _665
REMARK  282  A    between atoms: _665  and  _666
REMARK  283  A    between atoms: _665  and  _668
REMARK  284  A    between atoms: _668  and  _669
REMARK  285  A    between atoms: _672  and  _674
REMARK  286  A    between atoms: _674  and  _675
REMARK  287  A    between atoms: _674  and  _677
REMARK  288  A    between atoms: _677  and  _678
REMARK  289  A    between atoms: _678  and  _679
REMARK  290  A    between atoms: _682  and  _684
REMARK  291  A    between atoms: _684  and  _685
REMARK  292  A    between atoms: _684  and  _687
REMARK  293  A    between atoms: _687  and  _688
REMARK  294  A    between atoms: _688  and  _689
REMARK  295  A    between atoms: _691  and  _693
REMARK  296  A    between atoms: _693  and  _694
REMARK  297  A    between atoms: _696  and  _698
REMARK  298  A    between atoms: _698  and  _699
REMARK  299  A    between atoms: _698  and  _701
REMARK  300  A    between atoms: _701  and  _702
REMARK  301  A    between atoms: _707  and  _708
REMARK  302  A    between atoms: _711  and  _712
REMARK  303  A    between atoms: _718  and  _719
REMARK  304  A    between atoms: _724  and  _726
REMARK  305  A    between atoms: _726  and  _727
REMARK  306  A    between atoms: _726  and  _729
REMARK  307  A    between atoms: _729  and  _730
REMARK  308  A    between atoms: _736  and  _738
REMARK  309  A    between atoms: _738  and  _739
REMARK  310  A    between atoms: _738  and  _741
REMARK  311  A    between atoms: _741  and  _742
REMARK  312  A    between atoms: _748  and  _750
REMARK  313  A    between atoms: _750  and  _751
REMARK  314  A    between atoms: _750  and  _753
REMARK  315  A    between atoms: _753  and  _754
REMARK  316  A    between atoms: _757  and  _759
REMARK  317  A    between atoms: _759  and  _760
REMARK  318  A    between atoms: _759  and  _762
REMARK  319  A    between atoms: _762  and  _763
REMARK  320  A    between atoms: _768  and  _770
REMARK  321  A    between atoms: _770  and  _771
REMARK  322  A    between atoms: _770  and  _773
REMARK  323  A    between atoms: _773  and  _774
REMARK  324  A    between atoms: _780  and  _782
REMARK  325  A    between atoms: _782  and  _783
REMARK  326  A    between atoms: _782  and  _785
REMARK  327  A    between atoms: _785  and  _786
REMARK  328  A    between atoms: _789  and  _791
REMARK  329  A    between atoms: _791  and  _792
REMARK  330  A    between atoms: _791  and  _794
REMARK  331  A    between atoms: _794  and  _795
REMARK  332  A    between atoms: _800  and  _801
REMARK                            x       y       z     vdW  Elec       q    Type
REMARK                         _______ _______ _______ _____ _____    ______ ____
ROOT
ATOM      1  O   HOH     1     -10.422   7.660  18.959  0.00  0.00    +0.000 OA
ENDROOT
TORSDOF 0
REMARK  Name = ../refined-set-2016/3agl/3agl_pocket.pdb
REMARK  332 active torsions:
REMARK  status: ('A' for Active; 'I' for Inactive)
REMARK    1  A    between atoms: _1  and  _3
REMARK    2  A    between atoms: _3  and  _4
REMARK    3  A    between atoms: _3  and  _6
REMARK    4  A    between atoms: _6  and  _7
REMARK    5  A    between atoms: _10  and  _12
REMARK    6  A    between atoms: _12  and  _13
REMARK    7  A    between atoms: _12  and  _15
REMARK    8  A    between atoms: _15  and  _16
REMARK    9  A    between atoms: _19  and  _21
REMARK   10  A    between atoms: _21  and  _22
REMARK   11  A    between atoms: _24  and  _26
REMARK   12  A    between atoms: _26  and  _27
REMARK   13  A    between atoms: _26  and  _29
REMARK   14  A    between atoms: _29  and  _30
REMARK   15  A    between atoms: _33  and  _35
REMARK   16  A    between atoms: _35  and  _36
REMARK   17  A    between atoms: _38  and  _40
REMARK   18  A    between atoms: _40  and  _41
REMARK   19  A    between atoms: _40  and  _43
REMARK   20  A    between atoms: _43  and  _44
REMARK   21  A    between atoms: _46  and  _48
REMARK   22  A    between atoms: _48  and  _49
REMARK   23  A    between atoms: _48  and  _51
REMARK   24  A    between atoms: _51  and  _52
REMARK   25  A    between atoms: _58  and  _60
REMARK   26  A    between atoms: _60  and  _61
REMARK   27  A    between atoms: _63  and  _65
REMARK   28  A    between atoms: _65  and  _66
REMARK   29  A    between atoms: _65  and  _68
REMARK   30  A    between atoms: _68  and  _69
REMARK   31  A    between atoms: _69  and  _70
REMARK   32  A    between atoms: _70  and  _71
REMARK   33  A    between atoms: _80  and  _82
REMARK   34  A    between atoms: _82  and  _83
REMARK   35  A    between atoms: _82  and  _85
REMARK   36  A    between atoms: _88  and  _90
REMARK   37  A    between atoms: _90  and  _91
REMARK   38  A    between atoms: _90  and  _93
REMARK   39  A    between atoms: _93  and  _94
REMARK   40  A    between atoms: _94  and  _95
REMARK   41  A    between atoms: _97  and  _99
REMARK   42  A    between atoms: _99  and  _100
REMARK   43  A    between atoms: _99  and  _102
REMARK   44  A    between atoms: _102  and  _103
REMARK   45  A    between atoms: _106  and  _108
REMARK   46  A    between atoms: _108  and  _109
REMARK   47  A    between atoms: _108  and  _111
REMARK   48  A    between atoms: _111  and  _112
REMARK   49  A    between atoms: _117  and  _118
REMARK   50  A    between atoms: _120  and  _122
REMARK   51  A    between atoms: _122  and  _123
REMARK   52  A    between atoms: _126  and  _128
REMARK   53  A    between atoms: _128  and  _129
REMARK   54  A    between atoms: _128  and  _131
REMARK   55  A    between atoms: _131  and  _132
REMARK   56  A    between atoms: _132  and  _133
REMARK   57  A    between atoms: _135  and  _137
REMARK   58  A    between atoms: _137  and  _138
REMARK   59  A    between atoms: _137  and  _140
REMARK   60  A    between atoms: _140  and  _141
REMARK   61  A    between atoms: _141  and  _142
REMARK   62  A    between atoms: _142  and  _143
REMARK   63  A    between atoms: _143  and  _144
REMARK   64  A    between atoms: _148  and  _150
REMARK   65  A    between atoms: _150  and  _151
REMARK   66  A    between atoms: _150  and  _153
REMARK   67  A    between atoms: _153  and  _154
REMARK   68  A    between atoms: _157  and  _159
REMARK   69  A    between atoms: _159  and  _160
REMARK   70  A    between atoms: _159  and  _162
REMARK   71  A    between atoms: _162  and  _163
REMARK   72  A    between atoms: _166  and  _168
REMARK   73  A    between atoms: _168  and  _169
REMARK   74  A    between atoms: _168  and  _171
REMARK   75  A    between atoms: _171  and  _172
REMARK   76  A    between atoms: _175  and  _177
REMARK   77  A    between atoms: _177  and  _178
REMARK   78  A    between atoms: _177  and  _180
REMARK   79  A    between atoms: _180  and  _181
REMARK   80  A    between atoms: _181  and  _182
REMARK   81  A    between atoms: _182  and  _183
REMARK   82  A    between atoms: _183  and  _184
REMARK   83  A    between atoms: _188  and  _190
REMARK   84  A    between atoms: _190  and  _191
REMARK   85  A    between atoms: _190  and  _193
REMARK   86  A    between atoms: _196  and  _198
REMARK   87  A    between atoms: _198  and  _199
REMARK   88  A    between atoms: _198  and  _201
REMARK   89  A    between atoms: _201  and  _202
REMARK   90  A    between atoms: _205  and  _207
REMARK   91  A    between atoms: _207  and  _208
REMARK   92  A    between atoms: _207  and  _210
REMARK   93  A    between atoms: _210  and  _211
REMARK   94  A    between atoms: _211  and  _212
REMARK   95  A    between atoms: _217  and  _219
REMARK   96  A    between atoms: _219  and  _220
REMARK   97  A    between atoms: _219  and  _222
REMARK   98  A    between atoms: _222  and  _223
REMARK   99  A    between atoms: _228  and  _230
REMARK  100  A    between atoms: _230  and  _231
REMARK  101  A    between atoms: _230  and  _233
REMARK  102  A    between atoms: _233  and  _234
REMARK  103  A    between atoms: _237  and  _239
REMARK  104  A    between atoms: _239  and  _240
REMARK  105  A    between atoms: _239  and  _242
REMARK  106  A    between atoms: _242  and  _243
REMARK  107  A    between atoms: _243  and  _244
REMARK  108  A    between atoms: _247  and  _249
REMARK  109  A    between atoms: _249  and  _250
REMARK  110  A    between atoms: _249  and  _252
REMARK  111  A    between atoms: _252  and  _253
REMARK  112  A    between atoms: _256  and  _258
REMARK  113  A    between atoms: _258  and  _259
REMARK  114  A    between atoms: _258  and  _261
REMARK  115  A    between atoms: _264  and  _266
REMARK  116  A    between atoms: _266  and  _267
REMARK  117  A    between atoms: _266  and  _269
REMARK  118  A    between atoms: _269  and  _270
REMARK  119  A    between atoms: _270  and  _271
REMARK  120  A    between atoms: _271  and  _272
REMARK  121  A    between atoms: _272  and  _273
REMARK  122  A    between atoms: _277  and  _279
REMARK  123  A    between atoms: _279  and  _280
REMARK  124  A    between atoms: _279  and  _282
REMARK  125  A    between atoms: _282  and  _283
REMARK  126  A    between atoms: _286  and  _288
REMARK  127  A    between atoms: _288  and  _289
REMARK  128  A    between atoms: _288  and  _291
REMARK  129  A    between atoms: _291  and  _292
REMARK  130  A    between atoms: _292  and  _293
REMARK  131  A    between atoms: _296  and  _298
REMARK  132  A    between atoms: _298  and  _299
REMARK  133  A    between atoms: _298  and  _301
REMARK  134  A    between atoms: _301  and  _302
REMARK  135  A    between atoms: _302  and  _303
REMARK  136  A    between atoms: _305  and  _307
REMARK  137  A    between atoms: _307  and  _308
REMARK  138  A    between atoms: _307  and  _310
REMARK  139  A    between atoms: _313  and  _315
REMARK  140  A    between atoms: _315  and  _316
REMARK  141  A    between atoms: _315  and  _318
REMARK  142  A    between atoms: _318  and  _319
REMARK  143  A    between atoms: _319  and  _320
REMARK  144  A    between atoms: _322  and  _324
REMARK  145  A    between atoms: _324  and  _325
REMARK  146  A    between atoms: _324  and  _327
REMARK  147  A    between atoms: _327  and  _328
REMARK  148  A    between atoms: _328  and  _329
REMARK  149  A    between atoms: _332  and  _334
REMARK  150  A    between atoms: _334  and  _335
REMARK  151  A    between atoms: _334  and  _337
REMARK  152  A    between atoms: _337  and  _338
REMARK  153  A    between atoms: _343  and  _344
REMARK  154  A    between atoms: _346  and  _348
REMARK  155  A    between atoms: _348  and  _349
REMARK  156  A    between atoms: _348  and  _351
REMARK  157  A    between atoms: _355  and  _356
REMARK  158  A    between atoms: _361  and  _363
REMARK  159  A    between atoms: _363  and  _364
REMARK  160  A    between atoms: _366  and  _368
REMARK  161  A    between atoms: _368  and  _369
REMARK  162  A    between atoms: _371  and  _373
REMARK  163  A    between atoms: _373  and  _374
REMARK  164  A    between atoms: _373  and  _376
REMARK  165  A    between atoms: _376  and  _377
REMARK  166  A    between atoms: _377  and  _378
REMARK  167  A    between atoms: _381  and  _383
REMARK  168  A    between atoms: _383  and  _384
REMARK  169  A    between atoms: _383  and  _386
REMARK  170  A    between atoms: _386  and  _387
REMARK  171  A    between atoms: _387  and  _388
REMARK  172  A    between atoms: _390  and  _392
REMARK  173  A    between atoms: _392  and  _393
REMARK  174  A    between atoms: _392  and  _395
REMARK  175  A    between atoms: _395  and  _396
REMARK  176  A    between atoms: _402  and  _404
REMARK  177  A    between atoms: _404  and  _405
REMARK  178  A    between atoms: _404  and  _407
REMARK  179  A    between atoms: _407  and  _408
REMARK  180  A    between atoms: _410  and  _412
REMARK  181  A    between atoms: _412  and  _413
REMARK  182  A    between atoms: _412  and  _415
REMARK  183  A    between atoms: _415  and  _416
REMARK  184  A    between atoms: _419  and  _421
REMARK  185  A    between atoms: _421  and  _422
REMARK  186  A    between atoms: _421  and  _424
REMARK  187  A    between atoms: _424  and  _425
REMARK  188  A    between atoms: _425  and  _426
REMARK  189  A    between atoms: _426  and  _427
REMARK  190  A    between atoms: _436  and  _438
REMARK  191  A    between atoms: _438  and  _439
REMARK  192  A    between atoms: _438  and  _441
REMARK  193  A    between atoms: _441  and  _442
REMARK  194  A    between atoms: _447  and  _448
REMARK  195  A    between atoms: _450  and  _452
REMARK  196  A    between atoms: _452  and  _453
REMARK  197  A    between atoms: _452  and  _455
REMARK  198  A    between atoms: _455  and  _456
REMARK  199  A    between atoms: _459  and  _461
REMARK  200  A    between atoms: _461  and  _462
REMARK  201  A    between atoms: _461  and  _464
REMARK  202  A    between atoms: _464  and  _465
REMARK  203  A    between atoms: _468  and  _470
REMARK  204  A    between atoms: _470  and  _471
REMARK  205  A    between atoms: _470  and  _473
REMARK  206  A    between atoms: _473  and  _474
REMARK  207  A    between atoms: _474  and  _475
REMARK  208  A    between atoms: _475  and  _476
REMARK  209  A    between atoms: _476  and  _477
REMARK  210  A    between atoms: _482  and  _483
REMARK  211  A    between atoms: _488  and  _490
REMARK  212  A    between atoms: _490  and  _491
REMARK  213  A    between atoms: _490  and  _493
REMARK  214  A    between atoms: _493  and  _494
REMARK  215  A    between atoms: _494  and  _495
REMARK  216  A    between atoms: _498  and  _500
REMARK  217  A    between atoms: _500  and  _501
REMARK  218  A    between atoms: _500  and  _503
REMARK  219  A    between atoms: _503  and  _504
REMARK  220  A    between atoms: _509  and  _511
REMARK  221  A    between atoms: _511  and  _512
REMARK  222  A    between atoms: _511  and  _514
REMARK  223  A    between atoms: _514  and  _515
REMARK  224  A    between atoms: _518  and  _520
REMARK  225  A    between atoms: _520  and  _521
REMARK  226  A    between atoms: _520  and  _523
REMARK  227  A    between atoms: _523  and  _524
REMARK  228  A    between atoms: _527  and  _529
REMARK  229  A    between atoms: _529  and  _530
REMARK  230  A    between atoms: _529  and  _532
REMARK  231  A    between atoms: _532  and  _533
REMARK  232  A    between atoms: _536  and  _538
REMARK  233  A    between atoms: _538  and  _539
REMARK  234  A    between atoms: _538  and  _541
REMARK  235  A    between atoms: _541  and  _542
REMARK  236  A    between atoms: _542  and  _543
REMARK  237  A    between atoms: _548  and  _550
REMARK  238  A    between atoms: _550  and  _551
REMARK  239  A    between atoms: _550  and  _553
REMARK  240  A    between atoms: _556  and  _558
REMARK  241  A    between atoms: _558  and  _559
REMARK  242  A    between atoms: _558  and  _561
REMARK  243  A    between atoms: _561  and  _562
REMARK  244  A    between atoms: _565  and  _567
REMARK  245  A    between atoms: _567  and  _568
REMARK  246  A    between atoms: _567  and  _570
REMARK  247  A    between atoms: _570  and  _571
REMARK  248  A    between atoms: _574  and  _576
REMARK  249  A    between atoms: _576  and  _577
REMARK  250  A    between atoms: _576  and  _579
REMARK  251  A    between atoms: _579  and  _580
REMARK  252  A    between atoms: _586  and  _588
REMARK  253  A    between atoms: _588  and  _589
REMARK  254  A    between atoms: _591  and  _593
REMARK  255  A    between atoms: _593  and  _594
REMARK  256  A    between atoms: _593  and  _596
REMARK  257  A    between atoms: _596  and  _597
REMARK  258  A    between atoms: _603  and  _605
REMARK  259  A    between atoms: _605  and  _606
REMARK  260  A    between atoms: _605  and  _608
REMARK  261  A    between atoms: _610  and  _612
REMARK  262  A    between atoms: _612  and  _613
REMARK  263  A    between atoms: _615  and  _617
REMARK  264  A    between atoms: _617  and  _618
REMARK  265  A    between atoms: _617  and  _620
REMARK  266  A    between atoms: _620  and  _621
REMARK  267  A    between atoms: _625  and  _626
REMARK  268  A    between atoms: _631  and  _633
REMARK  269  A    between atoms: _633  and  _634
REMARK  270  A    between atoms: _633  and  _636
REMARK  271  A    between atoms: _636  and  _637
REMARK  272  A    between atoms: _637  and  _638
REMARK  273  A    between atoms: _641  and  _643
REMARK  274  A    between atoms: _643  and  _644
REMARK  275  A    between atoms: _643  and  _646
REMARK  276  A    between atoms: _646  and  _647
REMARK  277  A    between atoms: _652  and  _653
REMARK  278  A    between atoms: _655  and  _657
REMARK  279  A    between atoms: _657  and  _658
REMARK  280  A    between atoms: _657  and  _660
REMARK  281  A    between atoms: _663  and  _665
REMARK  282  A    between atoms: _665  and  _666
REMARK  283  A    between atoms: _665  and  _668
REMARK  284  A    between atoms: _668  and  _669
REMARK  285  A    between atoms: _672  and  _674
REMARK  286  A    between atoms: _674  and  _675
REMARK  287  A    between atoms: _674  and  _677
REMARK  288  A    between atoms: _677  and  _678
REMARK  289  A    between atoms: _678  and  _679
REMARK  290  A    between atoms: _682  and  _684
REMARK  291  A    between atoms: _684  and  _685
REMARK  292  A    between atoms: _684  and  _687
REMARK  293  A    between atoms: _687  and  _688
REMARK  294  A    between atoms: _688  and  _689
REMARK  295  A    between atoms: _691  and  _693
REMARK  296  A    between atoms: _693  and  _694
REMARK  297  A    between atoms: _696  and  _698
REMARK  298  A    between atoms: _698  and  _699
REMARK  299  A    between atoms: _698  and  _701
REMARK  300  A    between atoms: _701  and  _702
REMARK  301  A    between atoms: _707  and  _708
REMARK  302  A    between atoms: _711  and  _712
REMARK  303  A    between atoms: _718  and  _719
REMARK  304  A    between atoms: _724  and  _726
REMARK  305  A    between atoms: _726  and  _727
REMARK  306  A    between atoms: _726  and  _729
REMARK  307  A    between atoms: _729  and  _730
REMARK  308  A    between atoms: _736  and  _738
REMARK  309  A    between atoms: _738  and  _739
REMARK  310  A    between atoms: _738  and  _741
REMARK  311  A    between atoms: _741  and  _742
REMARK  312  A    between atoms: _748  and  _750
REMARK  313  A    between atoms: _750  and  _751
REMARK  314  A    between atoms: _750  and  _753
REMARK  315  A    between atoms: _753  and  _754
REMARK  316  A    between atoms: _757  and  _759
REMARK  317  A    between atoms: _759  and  _760
REMARK  318  A    between atoms: _759  and  _762
REMARK  319  A    between atoms: _762  and  _763
REMARK  320  A    between atoms: _768  and  _770
REMARK  321  A    between atoms: _770  and  _771
REMARK  322  A    between atoms: _770  and  _773
REMARK  323  A    between atoms: _773  and  _774
REMARK  324  A    between atoms: _780  and  _782
REMARK  325  A    between atoms: _782  and  _783
REMARK  326  A    between atoms: _782  and  _785
REMARK  327  A    between atoms: _785  and  _786
REMARK  328  A    between atoms: _789  and  _791
REMARK  329  A    between atoms: _791  and  _792
REMARK  330  A    between atoms: _791  and  _794
REMARK  331  A    between atoms: _794  and  _795
REMARK  332  A    between atoms: _800  and  _801
REMARK                            x       y       z     vdW  Elec       q    Type
REMARK                         _______ _______ _______ _____ _____    ______ ____
ROOT
ATOM      1  O   HOH     1     -13.800   6.191  13.818  0.00  0.00    +0.000 OA
ENDROOT
TORSDOF 0
REMARK  Name = ../refined-set-2016/3agl/3agl_pocket.pdb
REMARK  332 active torsions:
REMARK  status: ('A' for Active; 'I' for Inactive)
REMARK    1  A    between atoms: _1  and  _3
REMARK    2  A    between atoms: _3  and  _4
REMARK    3  A    between atoms: _3  and  _6
REMARK    4  A    between atoms: _6  and  _7
REMARK    5  A    between atoms: _10  and  _12
REMARK    6  A    between atoms: _12  and  _13
REMARK    7  A    between atoms: _12  and  _15
REMARK    8  A    between atoms: _15  and  _16
REMARK    9  A    between atoms: _19  and  _21
REMARK   10  A    between atoms: _21  and  _22
REMARK   11  A    between atoms: _24  and  _26
REMARK   12  A    between atoms: _26  and  _27
REMARK   13  A    between atoms: _26  and  _29
REMARK   14  A    between atoms: _29  and  _30
REMARK   15  A    between atoms: _33  and  _35
REMARK   16  A    between atoms: _35  and  _36
REMARK   17  A    between atoms: _38  and  _40
REMARK   18  A    between atoms: _40  and  _41
REMARK   19  A    between atoms: _40  and  _43
REMARK   20  A    between atoms: _43  and  _44
REMARK   21  A    between atoms: _46  and  _48
REMARK   22  A    between atoms: _48  and  _49
REMARK   23  A    between atoms: _48  and  _51
REMARK   24  A    between atoms: _51  and  _52
REMARK   25  A    between atoms: _58  and  _60
REMARK   26  A    between atoms: _60  and  _61
REMARK   27  A    between atoms: _63  and  _65
REMARK   28  A    between atoms: _65  and  _66
REMARK   29  A    between atoms: _65  and  _68
REMARK   30  A    between atoms: _68  and  _69
REMARK   31  A    between atoms: _69  and  _70
REMARK   32  A    between atoms: _70  and  _71
REMARK   33  A    between atoms: _80  and  _82
REMARK   34  A    between atoms: _82  and  _83
REMARK   35  A    between atoms: _82  and  _85
REMARK   36  A    between atoms: _88  and  _90
REMARK   37  A    between atoms: _90  and  _91
REMARK   38  A    between atoms: _90  and  _93
REMARK   39  A    between atoms: _93  and  _94
REMARK   40  A    between atoms: _94  and  _95
REMARK   41  A    between atoms: _97  and  _99
REMARK   42  A    between atoms: _99  and  _100
REMARK   43  A    between atoms: _99  and  _102
REMARK   44  A    between atoms: _102  and  _103
REMARK   45  A    between atoms: _106  and  _108
REMARK   46  A    between atoms: _108  and  _109
REMARK   47  A    between atoms: _108  and  _111
REMARK   48  A    between atoms: _111  and  _112
REMARK   49  A    between atoms: _117  and  _118
REMARK   50  A    between atoms: _120  and  _122
REMARK   51  A    between atoms: _122  and  _123
REMARK   52  A    between atoms: _126  and  _128
REMARK   53  A    between atoms: _128  and  _129
REMARK   54  A    between atoms: _128  and  _131
REMARK   55  A    between atoms: _131  and  _132
REMARK   56  A    between atoms: _132  and  _133
REMARK   57  A    between atoms: _135  and  _137
REMARK   58  A    between atoms: _137  and  _138
REMARK   59  A    between atoms: _137  and  _140
REMARK   60  A    between atoms: _140  and  _141
REMARK   61  A    between atoms: _141  and  _142
REMARK   62  A    between atoms: _142  and  _143
REMARK   63  A    between atoms: _143  and  _144
REMARK   64  A    between atoms: _148  and  _150
REMARK   65  A    between atoms: _150  and  _151
REMARK   66  A    between atoms: _150  and  _153
REMARK   67  A    between atoms: _153  and  _154
REMARK   68  A    between atoms: _157  and  _159
REMARK   69  A    between atoms: _159  and  _160
REMARK   70  A    between atoms: _159  and  _162
REMARK   71  A    between atoms: _162  and  _163
REMARK   72  A    between atoms: _166  and  _168
REMARK   73  A    between atoms: _168  and  _169
REMARK   74  A    between atoms: _168  and  _171
REMARK   75  A    between atoms: _171  and  _172
REMARK   76  A    between atoms: _175  and  _177
REMARK   77  A    between atoms: _177  and  _178
REMARK   78  A    between atoms: _177  and  _180
REMARK   79  A    between atoms: _180  and  _181
REMARK   80  A    between atoms: _181  and  _182
REMARK   81  A    between atoms: _182  and  _183
REMARK   82  A    between atoms: _183  and  _184
REMARK   83  A    between atoms: _188  and  _190
REMARK   84  A    between atoms: _190  and  _191
REMARK   85  A    between atoms: _190  and  _193
REMARK   86  A    between atoms: _196  and  _198
REMARK   87  A    between atoms: _198  and  _199
REMARK   88  A    between atoms: _198  and  _201
REMARK   89  A    between atoms: _201  and  _202
REMARK   90  A    between atoms: _205  and  _207
REMARK   91  A    between atoms: _207  and  _208
REMARK   92  A    between atoms: _207  and  _210
REMARK   93  A    between atoms: _210  and  _211
REMARK   94  A    between atoms: _211  and  _212
REMARK   95  A    between atoms: _217  and  _219
REMARK   96  A    between atoms: _219  and  _220
REMARK   97  A    between atoms: _219  and  _222
REMARK   98  A    between atoms: _222  and  _223
REMARK   99  A    between atoms: _228  and  _230
REMARK  100  A    between atoms: _230  and  _231
REMARK  101  A    between atoms: _230  and  _233
REMARK  102  A    between atoms: _233  and  _234
REMARK  103  A    between atoms: _237  and  _239
REMARK  104  A    between atoms: _239  and  _240
REMARK  105  A    between atoms: _239  and  _242
REMARK  106  A    between atoms: _242  and  _243
REMARK  107  A    between atoms: _243  and  _244
REMARK  108  A    between atoms: _247  and  _249
REMARK  109  A    between atoms: _249  and  _250
REMARK  110  A    between atoms: _249  and  _252
REMARK  111  A    between atoms: _252  and  _253
REMARK  112  A    between atoms: _256  and  _258
REMARK  113  A    between atoms: _258  and  _259
REMARK  114  A    between atoms: _258  and  _261
REMARK  115  A    between atoms: _264  and  _266
REMARK  116  A    between atoms: _266  and  _267
REMARK  117  A    between atoms: _266  and  _269
REMARK  118  A    between atoms: _269  and  _270
REMARK  119  A    between atoms: _270  and  _271
REMARK  120  A    between atoms: _271  and  _272
REMARK  121  A    between atoms: _272  and  _273
REMARK  122  A    between atoms: _277  and  _279
REMARK  123  A    between atoms: _279  and  _280
REMARK  124  A    between atoms: _279  and  _282
REMARK  125  A    between atoms: _282  and  _283
REMARK  126  A    between atoms: _286  and  _288
REMARK  127  A    between atoms: _288  and  _289
REMARK  128  A    between atoms: _288  and  _291
REMARK  129  A    between atoms: _291  and  _292
REMARK  130  A    between atoms: _292  and  _293
REMARK  131  A    between atoms: _296  and  _298
REMARK  132  A    between atoms: _298  and  _299
REMARK  133  A    between atoms: _298  and  _301
REMARK  134  A    between atoms: _301  and  _302
REMARK  135  A    between atoms: _302  and  _303
REMARK  136  A    between atoms: _305  and  _307
REMARK  137  A    between atoms: _307  and  _308
REMARK  138  A    between atoms: _307  and  _310
REMARK  139  A    between atoms: _313  and  _315
REMARK  140  A    between atoms: _315  and  _316
REMARK  141  A    between atoms: _315  and  _318
REMARK  142  A    between atoms: _318  and  _319
REMARK  143  A    between atoms: _319  and  _320
REMARK  144  A    between atoms: _322  and  _324
REMARK  145  A    between atoms: _324  and  _325
REMARK  146  A    between atoms: _324  and  _327
REMARK  147  A    between atoms: _327  and  _328
REMARK  148  A    between atoms: _328  and  _329
REMARK  149  A    between atoms: _332  and  _334
REMARK  150  A    between atoms: _334  and  _335
REMARK  151  A    between atoms: _334  and  _337
REMARK  152  A    between atoms: _337  and  _338
REMARK  153  A    between atoms: _343  and  _344
REMARK  154  A    between atoms: _346  and  _348
REMARK  155  A    between atoms: _348  and  _349
REMARK  156  A    between atoms: _348  and  _351
REMARK  157  A    between atoms: _355  and  _356
REMARK  158  A    between atoms: _361  and  _363
REMARK  159  A    between atoms: _363  and  _364
REMARK  160  A    between atoms: _366  and  _368
REMARK  161  A    between atoms: _368  and  _369
REMARK  162  A    between atoms: _371  and  _373
REMARK  163  A    between atoms: _373  and  _374
REMARK  164  A    between atoms: _373  and  _376
REMARK  165  A    between atoms: _376  and  _377
REMARK  166  A    between atoms: _377  and  _378
REMARK  167  A    between atoms: _381  and  _383
REMARK  168  A    between atoms: _383  and  _384
REMARK  169  A    between atoms: _383  and  _386
REMARK  170  A    between atoms: _386  and  _387
REMARK  171  A    between atoms: _387  and  _388
REMARK  172  A    between atoms: _390  and  _392
REMARK  173  A    between atoms: _392  and  _393
REMARK  174  A    between atoms: _392  and  _395
REMARK  175  A    between atoms: _395  and  _396
REMARK  176  A    between atoms: _402  and  _404
REMARK  177  A    between atoms: _404  and  _405
REMARK  178  A    between atoms: _404  and  _407
REMARK  179  A    between atoms: _407  and  _408
REMARK  180  A    between atoms: _410  and  _412
REMARK  181  A    between atoms: _412  and  _413
REMARK  182  A    between atoms: _412  and  _415
REMARK  183  A    between atoms: _415  and  _416
REMARK  184  A    between atoms: _419  and  _421
REMARK  185  A    between atoms: _421  and  _422
REMARK  186  A    between atoms: _421  and  _424
REMARK  187  A    between atoms: _424  and  _425
REMARK  188  A    between atoms: _425  and  _426
REMARK  189  A    between atoms: _426  and  _427
REMARK  190  A    between atoms: _436  and  _438
REMARK  191  A    between atoms: _438  and  _439
REMARK  192  A    between atoms: _438  and  _441
REMARK  193  A    between atoms: _441  and  _442
REMARK  194  A    between atoms: _447  and  _448
REMARK  195  A    between atoms: _450  and  _452
REMARK  196  A    between atoms: _452  and  _453
REMARK  197  A    between atoms: _452  and  _455
REMARK  198  A    between atoms: _455  and  _456
REMARK  199  A    between atoms: _459  and  _461
REMARK  200  A    between atoms: _461  and  _462
REMARK  201  A    between atoms: _461  and  _464
REMARK  202  A    between atoms: _464  and  _465
REMARK  203  A    between atoms: _468  and  _470
REMARK  204  A    between atoms: _470  and  _471
REMARK  205  A    between atoms: _470  and  _473
REMARK  206  A    between atoms: _473  and  _474
REMARK  207  A    between atoms: _474  and  _475
REMARK  208  A    between atoms: _475  and  _476
REMARK  209  A    between atoms: _476  and  _477
REMARK  210  A    between atoms: _482  and  _483
REMARK  211  A    between atoms: _488  and  _490
REMARK  212  A    between atoms: _490  and  _491
REMARK  213  A    between atoms: _490  and  _493
REMARK  214  A    between atoms: _493  and  _494
REMARK  215  A    between atoms: _494  and  _495
REMARK  216  A    between atoms: _498  and  _500
REMARK  217  A    between atoms: _500  and  _501
REMARK  218  A    between atoms: _500  and  _503
REMARK  219  A    between atoms: _503  and  _504
REMARK  220  A    between atoms: _509  and  _511
REMARK  221  A    between atoms: _511  and  _512
REMARK  222  A    between atoms: _511  and  _514
REMARK  223  A    between atoms: _514  and  _515
REMARK  224  A    between atoms: _518  and  _520
REMARK  225  A    between atoms: _520  and  _521
REMARK  226  A    between atoms: _520  and  _523
REMARK  227  A    between atoms: _523  and  _524
REMARK  228  A    between atoms: _527  and  _529
REMARK  229  A    between atoms: _529  and  _530
REMARK  230  A    between atoms: _529  and  _532
REMARK  231  A    between atoms: _532  and  _533
REMARK  232  A    between atoms: _536  and  _538
REMARK  233  A    between atoms: _538  and  _539
REMARK  234  A    between atoms: _538  and  _541
REMARK  235  A    between atoms: _541  and  _542
REMARK  236  A    between atoms: _542  and  _543
REMARK  237  A    between atoms: _548  and  _550
REMARK  238  A    between atoms: _550  and  _551
REMARK  239  A    between atoms: _550  and  _553
REMARK  240  A    between atoms: _556  and  _558
REMARK  241  A    between atoms: _558  and  _559
REMARK  242  A    between atoms: _558  and  _561
REMARK  243  A    between atoms: _561  and  _562
REMARK  244  A    between atoms: _565  and  _567
REMARK  245  A    between atoms: _567  and  _568
REMARK  246  A    between atoms: _567  and  _570
REMARK  247  A    between atoms: _570  and  _571
REMARK  248  A    between atoms: _574  and  _576
REMARK  249  A    between atoms: _576  and  _577
REMARK  250  A    between atoms: _576  and  _579
REMARK  251  A    between atoms: _579  and  _580
REMARK  252  A    between atoms: _586  and  _588
REMARK  253  A    between atoms: _588  and  _589
REMARK  254  A    between atoms: _591  and  _593
REMARK  255  A    between atoms: _593  and  _594
REMARK  256  A    between atoms: _593  and  _596
REMARK  257  A    between atoms: _596  and  _597
REMARK  258  A    between atoms: _603  and  _605
REMARK  259  A    between atoms: _605  and  _606
REMARK  260  A    between atoms: _605  and  _608
REMARK  261  A    between atoms: _610  and  _612
REMARK  262  A    between atoms: _612  and  _613
REMARK  263  A    between atoms: _615  and  _617
REMARK  264  A    between atoms: _617  and  _618
REMARK  265  A    between atoms: _617  and  _620
REMARK  266  A    between atoms: _620  and  _621
REMARK  267  A    between atoms: _625  and  _626
REMARK  268  A    between atoms: _631  and  _633
REMARK  269  A    between atoms: _633  and  _634
REMARK  270  A    between atoms: _633  and  _636
REMARK  271  A    between atoms: _636  and  _637
REMARK  272  A    between atoms: _637  and  _638
REMARK  273  A    between atoms: _641  and  _643
REMARK  274  A    between atoms: _643  and  _644
REMARK  275  A    between atoms: _643  and  _646
REMARK  276  A    between atoms: _646  and  _647
REMARK  277  A    between atoms: _652  and  _653
REMARK  278  A    between atoms: _655  and  _657
REMARK  279  A    between atoms: _657  and  _658
REMARK  280  A    between atoms: _657  and  _660
REMARK  281  A    between atoms: _663  and  _665
REMARK  282  A    between atoms: _665  and  _666
REMARK  283  A    between atoms: _665  and  _668
REMARK  284  A    between atoms: _668  and  _669
REMARK  285  A    between atoms: _672  and  _674
REMARK  286  A    between atoms: _674  and  _675
REMARK  287  A    between atoms: _674  and  _677
REMARK  288  A    between atoms: _677  and  _678
REMARK  289  A    between atoms: _678  and  _679
REMARK  290  A    between atoms: _682  and  _684
REMARK  291  A    between atoms: _684  and  _685
REMARK  292  A    between atoms: _684  and  _687
REMARK  293  A    between atoms: _687  and  _688
REMARK  294  A    between atoms: _688  and  _689
REMARK  295  A    between atoms: _691  and  _693
REMARK  296  A    between atoms: _693  and  _694
REMARK  297  A    between atoms: _696  and  _698
REMARK  298  A    between atoms: _698  and  _699
REMARK  299  A    between atoms: _698  and  _701
REMARK  300  A    between atoms: _701  and  _702
REMARK  301  A    between atoms: _707  and  _708
REMARK  302  A    between atoms: _711  and  _712
REMARK  303  A    between atoms: _718  and  _719
REMARK  304  A    between atoms: _724  and  _726
REMARK  305  A    between atoms: _726  and  _727
REMARK  306  A    between atoms: _726  and  _729
REMARK  307  A    between atoms: _729  and  _730
REMARK  308  A    between atoms: _736  and  _738
REMARK  309  A    between atoms: _738  and  _739
REMARK  310  A    between atoms: _738  and  _741
REMARK  311  A    between atoms: _741  and  _742
REMARK  312  A    between atoms: _748  and  _750
REMARK  313  A    between atoms: _750  and  _751
REMARK  314  A    between atoms: _750  and  _753
REMARK  315  A    between atoms: _753  and  _754
REMARK  316  A    between atoms: _757  and  _759
REMARK  317  A    between atoms: _759  and  _760
REMARK  318  A    between atoms: _759  and  _762
REMARK  319  A    between atoms: _762  and  _763
REMARK  320  A    between atoms: _768  and  _770
REMARK  321  A    between atoms: _770  and  _771
REMARK  322  A    between atoms: _770  and  _773
REMARK  323  A    between atoms: _773  and  _774
REMARK  324  A    between atoms: _780  and  _782
REMARK  325  A    between atoms: _782  and  _783
REMARK  326  A    between atoms: _782  and  _785
REMARK  327  A    between atoms: _785  and  _786
REMARK  328  A    between atoms: _789  and  _791
REMARK  329  A    between atoms: _791  and  _792
REMARK  330  A    between atoms: _791  and  _794
REMARK  331  A    between atoms: _794  and  _795
REMARK  332  A    between atoms: _800  and  _801
REMARK                            x       y       z     vdW  Elec       q    Type
REMARK                         _______ _______ _______ _____ _____    ______ ____
ROOT
ATOM      1  O   HOH     1     -19.686   4.078  -7.453  0.00  0.00    +0.000 OA
ENDROOT
TORSDOF 0
REMARK  Name = ../refined-set-2016/3agl/3agl_pocket.pdb
REMARK  332 active torsions:
REMARK  status: ('A' for Active; 'I' for Inactive)
REMARK    1  A    between atoms: _1  and  _3
REMARK    2  A    between atoms: _3  and  _4
REMARK    3  A    between atoms: _3  and  _6
REMARK    4  A    between atoms: _6  and  _7
REMARK    5  A    between atoms: _10  and  _12
REMARK    6  A    between atoms: _12  and  _13
REMARK    7  A    between atoms: _12  and  _15
REMARK    8  A    between atoms: _15  and  _16
REMARK    9  A    between atoms: _19  and  _21
REMARK   10  A    between atoms: _21  and  _22
REMARK   11  A    between atoms: _24  and  _26
REMARK   12  A    between atoms: _26  and  _27
REMARK   13  A    between atoms: _26  and  _29
REMARK   14  A    between atoms: _29  and  _30
REMARK   15  A    between atoms: _33  and  _35
REMARK   16  A    between atoms: _35  and  _36
REMARK   17  A    between atoms: _38  and  _40
REMARK   18  A    between atoms: _40  and  _41
REMARK   19  A    between atoms: _40  and  _43
REMARK   20  A    between atoms: _43  and  _44
REMARK   21  A    between atoms: _46  and  _48
REMARK   22  A    between atoms: _48  and  _49
REMARK   23  A    between atoms: _48  and  _51
REMARK   24  A    between atoms: _51  and  _52
REMARK   25  A    between atoms: _58  and  _60
REMARK   26  A    between atoms: _60  and  _61
REMARK   27  A    between atoms: _63  and  _65
REMARK   28  A    between atoms: _65  and  _66
REMARK   29  A    between atoms: _65  and  _68
REMARK   30  A    between atoms: _68  and  _69
REMARK   31  A    between atoms: _69  and  _70
REMARK   32  A    between atoms: _70  and  _71
REMARK   33  A    between atoms: _80  and  _82
REMARK   34  A    between atoms: _82  and  _83
REMARK   35  A    between atoms: _82  and  _85
REMARK   36  A    between atoms: _88  and  _90
REMARK   37  A    between atoms: _90  and  _91
REMARK   38  A    between atoms: _90  and  _93
REMARK   39  A    between atoms: _93  and  _94
REMARK   40  A    between atoms: _94  and  _95
REMARK   41  A    between atoms: _97  and  _99
REMARK   42  A    between atoms: _99  and  _100
REMARK   43  A    between atoms: _99  and  _102
REMARK   44  A    between atoms: _102  and  _103
REMARK   45  A    between atoms: _106  and  _108
REMARK   46  A    between atoms: _108  and  _109
REMARK   47  A    between atoms: _108  and  _111
REMARK   48  A    between atoms: _111  and  _112
REMARK   49  A    between atoms: _117  and  _118
REMARK   50  A    between atoms: _120  and  _122
REMARK   51  A    between atoms: _122  and  _123
REMARK   52  A    between atoms: _126  and  _128
REMARK   53  A    between atoms: _128  and  _129
REMARK   54  A    between atoms: _128  and  _131
REMARK   55  A    between atoms: _131  and  _132
REMARK   56  A    between atoms: _132  and  _133
REMARK   57  A    between atoms: _135  and  _137
REMARK   58  A    between atoms: _137  and  _138
REMARK   59  A    between atoms: _137  and  _140
REMARK   60  A    between atoms: _140  and  _141
REMARK   61  A    between atoms: _141  and  _142
REMARK   62  A    between atoms: _142  and  _143
REMARK   63  A    between atoms: _143  and  _144
REMARK   64  A    between atoms: _148  and  _150
REMARK   65  A    between atoms: _150  and  _151
REMARK   66  A    between atoms: _150  and  _153
REMARK   67  A    between atoms: _153  and  _154
REMARK   68  A    between atoms: _157  and  _159
REMARK   69  A    between atoms: _159  and  _160
REMARK   70  A    between atoms: _159  and  _162
REMARK   71  A    between atoms: _162  and  _163
REMARK   72  A    between atoms: _166  and  _168
REMARK   73  A    between atoms: _168  and  _169
REMARK   74  A    between atoms: _168  and  _171
REMARK   75  A    between atoms: _171  and  _172
REMARK   76  A    between atoms: _175  and  _177
REMARK   77  A    between atoms: _177  and  _178
REMARK   78  A    between atoms: _177  and  _180
REMARK   79  A    between atoms: _180  and  _181
REMARK   80  A    between atoms: _181  and  _182
REMARK   81  A    between atoms: _182  and  _183
REMARK   82  A    between atoms: _183  and  _184
REMARK   83  A    between atoms: _188  and  _190
REMARK   84  A    between atoms: _190  and  _191
REMARK   85  A    between atoms: _190  and  _193
REMARK   86  A    between atoms: _196  and  _198
REMARK   87  A    between atoms: _198  and  _199
REMARK   88  A    between atoms: _198  and  _201
REMARK   89  A    between atoms: _201  and  _202
REMARK   90  A    between atoms: _205  and  _207
REMARK   91  A    between atoms: _207  and  _208
REMARK   92  A    between atoms: _207  and  _210
REMARK   93  A    between atoms: _210  and  _211
REMARK   94  A    between atoms: _211  and  _212
REMARK   95  A    between atoms: _217  and  _219
REMARK   96  A    between atoms: _219  and  _220
REMARK   97  A    between atoms: _219  and  _222
REMARK   98  A    between atoms: _222  and  _223
REMARK   99  A    between atoms: _228  and  _230
REMARK  100  A    between atoms: _230  and  _231
REMARK  101  A    between atoms: _230  and  _233
REMARK  102  A    between atoms: _233  and  _234
REMARK  103  A    between atoms: _237  and  _239
REMARK  104  A    between atoms: _239  and  _240
REMARK  105  A    between atoms: _239  and  _242
REMARK  106  A    between atoms: _242  and  _243
REMARK  107  A    between atoms: _243  and  _244
REMARK  108  A    between atoms: _247  and  _249
REMARK  109  A    between atoms: _249  and  _250
REMARK  110  A    between atoms: _249  and  _252
REMARK  111  A    between atoms: _252  and  _253
REMARK  112  A    between atoms: _256  and  _258
REMARK  113  A    between atoms: _258  and  _259
REMARK  114  A    between atoms: _258  and  _261
REMARK  115  A    between atoms: _264  and  _266
REMARK  116  A    between atoms: _266  and  _267
REMARK  117  A    between atoms: _266  and  _269
REMARK  118  A    between atoms: _269  and  _270
REMARK  119  A    between atoms: _270  and  _271
REMARK  120  A    between atoms: _271  and  _272
REMARK  121  A    between atoms: _272  and  _273
REMARK  122  A    between atoms: _277  and  _279
REMARK  123  A    between atoms: _279  and  _280
REMARK  124  A    between atoms: _279  and  _282
REMARK  125  A    between atoms: _282  and  _283
REMARK  126  A    between atoms: _286  and  _288
REMARK  127  A    between atoms: _288  and  _289
REMARK  128  A    between atoms: _288  and  _291
REMARK  129  A    between atoms: _291  and  _292
REMARK  130  A    between atoms: _292  and  _293
REMARK  131  A    between atoms: _296  and  _298
REMARK  132  A    between atoms: _298  and  _299
REMARK  133  A    between atoms: _298  and  _301
REMARK  134  A    between atoms: _301  and  _302
REMARK  135  A    between atoms: _302  and  _303
REMARK  136  A    between atoms: _305  and  _307
REMARK  137  A    between atoms: _307  and  _308
REMARK  138  A    between atoms: _307  and  _310
REMARK  139  A    between atoms: _313  and  _315
REMARK  140  A    between atoms: _315  and  _316
REMARK  141  A    between atoms: _315  and  _318
REMARK  142  A    between atoms: _318  and  _319
REMARK  143  A    between atoms: _319  and  _320
REMARK  144  A    between atoms: _322  and  _324
REMARK  145  A    between atoms: _324  and  _325
REMARK  146  A    between atoms: _324  and  _327
REMARK  147  A    between atoms: _327  and  _328
REMARK  148  A    between atoms: _328  and  _329
REMARK  149  A    between atoms: _332  and  _334
REMARK  150  A    between atoms: _334  and  _335
REMARK  151  A    between atoms: _334  and  _337
REMARK  152  A    between atoms: _337  and  _338
REMARK  153  A    between atoms: _343  and  _344
REMARK  154  A    between atoms: _346  and  _348
REMARK  155  A    between atoms: _348  and  _349
REMARK  156  A    between atoms: _348  and  _351
REMARK  157  A    between atoms: _355  and  _356
REMARK  158  A    between atoms: _361  and  _363
REMARK  159  A    between atoms: _363  and  _364
REMARK  160  A    between atoms: _366  and  _368
REMARK  161  A    between atoms: _368  and  _369
REMARK  162  A    between atoms: _371  and  _373
REMARK  163  A    between atoms: _373  and  _374
REMARK  164  A    between atoms: _373  and  _376
REMARK  165  A    between atoms: _376  and  _377
REMARK  166  A    between atoms: _377  and  _378
REMARK  167  A    between atoms: _381  and  _383
REMARK  168  A    between atoms: _383  and  _384
REMARK  169  A    between atoms: _383  and  _386
REMARK  170  A    between atoms: _386  and  _387
REMARK  171  A    between atoms: _387  and  _388
REMARK  172  A    between atoms: _390  and  _392
REMARK  173  A    between atoms: _392  and  _393
REMARK  174  A    between atoms: _392  and  _395
REMARK  175  A    between atoms: _395  and  _396
REMARK  176  A    between atoms: _402  and  _404
REMARK  177  A    between atoms: _404  and  _405
REMARK  178  A    between atoms: _404  and  _407
REMARK  179  A    between atoms: _407  and  _408
REMARK  180  A    between atoms: _410  and  _412
REMARK  181  A    between atoms: _412  and  _413
REMARK  182  A    between atoms: _412  and  _415
REMARK  183  A    between atoms: _415  and  _416
REMARK  184  A    between atoms: _419  and  _421
REMARK  185  A    between atoms: _421  and  _422
REMARK  186  A    between atoms: _421  and  _424
REMARK  187  A    between atoms: _424  and  _425
REMARK  188  A    between atoms: _425  and  _426
REMARK  189  A    between atoms: _426  and  _427
REMARK  190  A    between atoms: _436  and  _438
REMARK  191  A    between atoms: _438  and  _439
REMARK  192  A    between atoms: _438  and  _441
REMARK  193  A    between atoms: _441  and  _442
REMARK  194  A    between atoms: _447  and  _448
REMARK  195  A    between atoms: _450  and  _452
REMARK  196  A    between atoms: _452  and  _453
REMARK  197  A    between atoms: _452  and  _455
REMARK  198  A    between atoms: _455  and  _456
REMARK  199  A    between atoms: _459  and  _461
REMARK  200  A    between atoms: _461  and  _462
REMARK  201  A    between atoms: _461  and  _464
REMARK  202  A    between atoms: _464  and  _465
REMARK  203  A    between atoms: _468  and  _470
REMARK  204  A    between atoms: _470  and  _471
REMARK  205  A    between atoms: _470  and  _473
REMARK  206  A    between atoms: _473  and  _474
REMARK  207  A    between atoms: _474  and  _475
REMARK  208  A    between atoms: _475  and  _476
REMARK  209  A    between atoms: _476  and  _477
REMARK  210  A    between atoms: _482  and  _483
REMARK  211  A    between atoms: _488  and  _490
REMARK  212  A    between atoms: _490  and  _491
REMARK  213  A    between atoms: _490  and  _493
REMARK  214  A    between atoms: _493  and  _494
REMARK  215  A    between atoms: _494  and  _495
REMARK  216  A    between atoms: _498  and  _500
REMARK  217  A    between atoms: _500  and  _501
REMARK  218  A    between atoms: _500  and  _503
REMARK  219  A    between atoms: _503  and  _504
REMARK  220  A    between atoms: _509  and  _511
REMARK  221  A    between atoms: _511  and  _512
REMARK  222  A    between atoms: _511  and  _514
REMARK  223  A    between atoms: _514  and  _515
REMARK  224  A    between atoms: _518  and  _520
REMARK  225  A    between atoms: _520  and  _521
REMARK  226  A    between atoms: _520  and  _523
REMARK  227  A    between atoms: _523  and  _524
REMARK  228  A    between atoms: _527  and  _529
REMARK  229  A    between atoms: _529  and  _530
REMARK  230  A    between atoms: _529  and  _532
REMARK  231  A    between atoms: _532  and  _533
REMARK  232  A    between atoms: _536  and  _538
REMARK  233  A    between atoms: _538  and  _539
REMARK  234  A    between atoms: _538  and  _541
REMARK  235  A    between atoms: _541  and  _542
REMARK  236  A    between atoms: _542  and  _543
REMARK  237  A    between atoms: _548  and  _550
REMARK  238  A    between atoms: _550  and  _551
REMARK  239  A    between atoms: _550  and  _553
REMARK  240  A    between atoms: _556  and  _558
REMARK  241  A    between atoms: _558  and  _559
REMARK  242  A    between atoms: _558  and  _561
REMARK  243  A    between atoms: _561  and  _562
REMARK  244  A    between atoms: _565  and  _567
REMARK  245  A    between atoms: _567  and  _568
REMARK  246  A    between atoms: _567  and  _570
REMARK  247  A    between atoms: _570  and  _571
REMARK  248  A    between atoms: _574  and  _576
REMARK  249  A    between atoms: _576  and  _577
REMARK  250  A    between atoms: _576  and  _579
REMARK  251  A    between atoms: _579  and  _580
REMARK  252  A    between atoms: _586  and  _588
REMARK  253  A    between atoms: _588  and  _589
REMARK  254  A    between atoms: _591  and  _593
REMARK  255  A    between atoms: _593  and  _594
REMARK  256  A    between atoms: _593  and  _596
REMARK  257  A    between atoms: _596  and  _597
REMARK  258  A    between atoms: _603  and  _605
REMARK  259  A    between atoms: _605  and  _606
REMARK  260  A    between atoms: _605  and  _608
REMARK  261  A    between atoms: _610  and  _612
REMARK  262  A    between atoms: _612  and  _613
REMARK  263  A    between atoms: _615  and  _617
REMARK  264  A    between atoms: _617  and  _618
REMARK  265  A    between atoms: _617  and  _620
REMARK  266  A    between atoms: _620  and  _621
REMARK  267  A    between atoms: _625  and  _626
REMARK  268  A    between atoms: _631  and  _633
REMARK  269  A    between atoms: _633  and  _634
REMARK  270  A    between atoms: _633  and  _636
REMARK  271  A    between atoms: _636  and  _637
REMARK  272  A    between atoms: _637  and  _638
REMARK  273  A    between atoms: _641  and  _643
REMARK  274  A    between atoms: _643  and  _644
REMARK  275  A    between atoms: _643  and  _646
REMARK  276  A    between atoms: _646  and  _647
REMARK  277  A    between atoms: _652  and  _653
REMARK  278  A    between atoms: _655  and  _657
REMARK  279  A    between atoms: _657  and  _658
REMARK  280  A    between atoms: _657  and  _660
REMARK  281  A    between atoms: _663  and  _665
REMARK  282  A    between atoms: _665  and  _666
REMARK  283  A    between atoms: _665  and  _668
REMARK  284  A    between atoms: _668  and  _669
REMARK  285  A    between atoms: _672  and  _674
REMARK  286  A    between atoms: _674  and  _675
REMARK  287  A    between atoms: _674  and  _677
REMARK  288  A    between atoms: _677  and  _678
REMARK  289  A    between atoms: _678  and  _679
REMARK  290  A    between atoms: _682  and  _684
REMARK  291  A    between atoms: _684  and  _685
REMARK  292  A    between atoms: _684  and  _687
REMARK  293  A    between atoms: _687  and  _688
REMARK  294  A    between atoms: _688  and  _689
REMARK  295  A    between atoms: _691  and  _693
REMARK  296  A    between atoms: _693  and  _694
REMARK  297  A    between atoms: _696  and  _698
REMARK  298  A    between atoms: _698  and  _699
REMARK  299  A    between atoms: _698  and  _701
REMARK  300  A    between atoms: _701  and  _702
REMARK  301  A    between atoms: _707  and  _708
REMARK  302  A    between atoms: _711  and  _712
REMARK  303  A    between atoms: _718  and  _719
REMARK  304  A    between atoms: _724  and  _726
REMARK  305  A    between atoms: _726  and  _727
REMARK  306  A    between atoms: _726  and  _729
REMARK  307  A    between atoms: _729  and  _730
REMARK  308  A    between atoms: _736  and  _738
REMARK  309  A    between atoms: _738  and  _739
REMARK  310  A    between atoms: _738  and  _741
REMARK  311  A    between atoms: _741  and  _742
REMARK  312  A    between atoms: _748  and  _750
REMARK  313  A    between atoms: _750  and  _751
REMARK  314  A    between atoms: _750  and  _753
REMARK  315  A    between atoms: _753  and  _754
REMARK  316  A    between atoms: _757  and  _759
REMARK  317  A    between atoms: _759  and  _760
REMARK  318  A    between atoms: _759  and  _762
REMARK  319  A    between atoms: _762  and  _763
REMARK  320  A    between atoms: _768  and  _770
REMARK  321  A    between atoms: _770  and  _771
REMARK  322  A    between atoms: _770  and  _773
REMARK  323  A    between atoms: _773  and  _774
REMARK  324  A    between atoms: _780  and  _782
REMARK  325  A    between atoms: _782  and  _783
REMARK  326  A    between atoms: _782  and  _785
REMARK  327  A    between atoms: _785  and  _786
REMARK  328  A    between atoms: _789  and  _791
REMARK  329  A    between atoms: _791  and  _792
REMARK  330  A    between atoms: _791  and  _794
REMARK  331  A    between atoms: _794  and  _795
REMARK  332  A    between atoms: _800  and  _801
REMARK                            x       y       z     vdW  Elec       q    Type
REMARK                         _______ _______ _______ _____ _____    ______ ____
ROOT
ATOM      1  O   HOH     1     -17.615   5.013  19.100  0.00  0.00    +0.000 OA
ENDROOT
TORSDOF 0
REMARK  Name = ../refined-set-2016/3agl/3agl_pocket.pdb
REMARK  332 active torsions:
REMARK  status: ('A' for Active; 'I' for Inactive)
REMARK    1  A    between atoms: _1  and  _3
REMARK    2  A    between atoms: _3  and  _4
REMARK    3  A    between atoms: _3  and  _6
REMARK    4  A    between atoms: _6  and  _7
REMARK    5  A    between atoms: _10  and  _12
REMARK    6  A    between atoms: _12  and  _13
REMARK    7  A    between atoms: _12  and  _15
REMARK    8  A    between atoms: _15  and  _16
REMARK    9  A    between atoms: _19  and  _21
REMARK   10  A    between atoms: _21  and  _22
REMARK   11  A    between atoms: _24  and  _26
REMARK   12  A    between atoms: _26  and  _27
REMARK   13  A    between atoms: _26  and  _29
REMARK   14  A    between atoms: _29  and  _30
REMARK   15  A    between atoms: _33  and  _35
REMARK   16  A    between atoms: _35  and  _36
REMARK   17  A    between atoms: _38  and  _40
REMARK   18  A    between atoms: _40  and  _41
REMARK   19  A    between atoms: _40  and  _43
REMARK   20  A    between atoms: _43  and  _44
REMARK   21  A    between atoms: _46  and  _48
REMARK   22  A    between atoms: _48  and  _49
REMARK   23  A    between atoms: _48  and  _51
REMARK   24  A    between atoms: _51  and  _52
REMARK   25  A    between atoms: _58  and  _60
REMARK   26  A    between atoms: _60  and  _61
REMARK   27  A    between atoms: _63  and  _65
REMARK   28  A    between atoms: _65  and  _66
REMARK   29  A    between atoms: _65  and  _68
REMARK   30  A    between atoms: _68  and  _69
REMARK   31  A    between atoms: _69  and  _70
REMARK   32  A    between atoms: _70  and  _71
REMARK   33  A    between atoms: _80  and  _82
REMARK   34  A    between atoms: _82  and  _83
REMARK   35  A    between atoms: _82  and  _85
REMARK   36  A    between atoms: _88  and  _90
REMARK   37  A    between atoms: _90  and  _91
REMARK   38  A    between atoms: _90  and  _93
REMARK   39  A    between atoms: _93  and  _94
REMARK   40  A    between atoms: _94  and  _95
REMARK   41  A    between atoms: _97  and  _99
REMARK   42  A    between atoms: _99  and  _100
REMARK   43  A    between atoms: _99  and  _102
REMARK   44  A    between atoms: _102  and  _103
REMARK   45  A    between atoms: _106  and  _108
REMARK   46  A    between atoms: _108  and  _109
REMARK   47  A    between atoms: _108  and  _111
REMARK   48  A    between atoms: _111  and  _112
REMARK   49  A    between atoms: _117  and  _118
REMARK   50  A    between atoms: _120  and  _122
REMARK   51  A    between atoms: _122  and  _123
REMARK   52  A    between atoms: _126  and  _128
REMARK   53  A    between atoms: _128  and  _129
REMARK   54  A    between atoms: _128  and  _131
REMARK   55  A    between atoms: _131  and  _132
REMARK   56  A    between atoms: _132  and  _133
REMARK   57  A    between atoms: _135  and  _137
REMARK   58  A    between atoms: _137  and  _138
REMARK   59  A    between atoms: _137  and  _140
REMARK   60  A    between atoms: _140  and  _141
REMARK   61  A    between atoms: _141  and  _142
REMARK   62  A    between atoms: _142  and  _143
REMARK   63  A    between atoms: _143  and  _144
REMARK   64  A    between atoms: _148  and  _150
REMARK   65  A    between atoms: _150  and  _151
REMARK   66  A    between atoms: _150  and  _153
REMARK   67  A    between atoms: _153  and  _154
REMARK   68  A    between atoms: _157  and  _159
REMARK   69  A    between atoms: _159  and  _160
REMARK   70  A    between atoms: _159  and  _162
REMARK   71  A    between atoms: _162  and  _163
REMARK   72  A    between atoms: _166  and  _168
REMARK   73  A    between atoms: _168  and  _169
REMARK   74  A    between atoms: _168  and  _171
REMARK   75  A    between atoms: _171  and  _172
REMARK   76  A    between atoms: _175  and  _177
REMARK   77  A    between atoms: _177  and  _178
REMARK   78  A    between atoms: _177  and  _180
REMARK   79  A    between atoms: _180  and  _181
REMARK   80  A    between atoms: _181  and  _182
REMARK   81  A    between atoms: _182  and  _183
REMARK   82  A    between atoms: _183  and  _184
REMARK   83  A    between atoms: _188  and  _190
REMARK   84  A    between atoms: _190  and  _191
REMARK   85  A    between atoms: _190  and  _193
REMARK   86  A    between atoms: _196  and  _198
REMARK   87  A    between atoms: _198  and  _199
REMARK   88  A    between atoms: _198  and  _201
REMARK   89  A    between atoms: _201  and  _202
REMARK   90  A    between atoms: _205  and  _207
REMARK   91  A    between atoms: _207  and  _208
REMARK   92  A    between atoms: _207  and  _210
REMARK   93  A    between atoms: _210  and  _211
REMARK   94  A    between atoms: _211  and  _212
REMARK   95  A    between atoms: _217  and  _219
REMARK   96  A    between atoms: _219  and  _220
REMARK   97  A    between atoms: _219  and  _222
REMARK   98  A    between atoms: _222  and  _223
REMARK   99  A    between atoms: _228  and  _230
REMARK  100  A    between atoms: _230  and  _231
REMARK  101  A    between atoms: _230  and  _233
REMARK  102  A    between atoms: _233  and  _234
REMARK  103  A    between atoms: _237  and  _239
REMARK  104  A    between atoms: _239  and  _240
REMARK  105  A    between atoms: _239  and  _242
REMARK  106  A    between atoms: _242  and  _243
REMARK  107  A    between atoms: _243  and  _244
REMARK  108  A    between atoms: _247  and  _249
REMARK  109  A    between atoms: _249  and  _250
REMARK  110  A    between atoms: _249  and  _252
REMARK  111  A    between atoms: _252  and  _253
REMARK  112  A    between atoms: _256  and  _258
REMARK  113  A    between atoms: _258  and  _259
REMARK  114  A    between atoms: _258  and  _261
REMARK  115  A    between atoms: _264  and  _266
REMARK  116  A    between atoms: _266  and  _267
REMARK  117  A    between atoms: _266  and  _269
REMARK  118  A    between atoms: _269  and  _270
REMARK  119  A    between atoms: _270  and  _271
REMARK  120  A    between atoms: _271  and  _272
REMARK  121  A    between atoms: _272  and  _273
REMARK  122  A    between atoms: _277  and  _279
REMARK  123  A    between atoms: _279  and  _280
REMARK  124  A    between atoms: _279  and  _282
REMARK  125  A    between atoms: _282  and  _283
REMARK  126  A    between atoms: _286  and  _288
REMARK  127  A    between atoms: _288  and  _289
REMARK  128  A    between atoms: _288  and  _291
REMARK  129  A    between atoms: _291  and  _292
REMARK  130  A    between atoms: _292  and  _293
REMARK  131  A    between atoms: _296  and  _298
REMARK  132  A    between atoms: _298  and  _299
REMARK  133  A    between atoms: _298  and  _301
REMARK  134  A    between atoms: _301  and  _302
REMARK  135  A    between atoms: _302  and  _303
REMARK  136  A    between atoms: _305  and  _307
REMARK  137  A    between atoms: _307  and  _308
REMARK  138  A    between atoms: _307  and  _310
REMARK  139  A    between atoms: _313  and  _315
REMARK  140  A    between atoms: _315  and  _316
REMARK  141  A    between atoms: _315  and  _318
REMARK  142  A    between atoms: _318  and  _319
REMARK  143  A    between atoms: _319  and  _320
REMARK  144  A    between atoms: _322  and  _324
REMARK  145  A    between atoms: _324  and  _325
REMARK  146  A    between atoms: _324  and  _327
REMARK  147  A    between atoms: _327  and  _328
REMARK  148  A    between atoms: _328  and  _329
REMARK  149  A    between atoms: _332  and  _334
REMARK  150  A    between atoms: _334  and  _335
REMARK  151  A    between atoms: _334  and  _337
REMARK  152  A    between atoms: _337  and  _338
REMARK  153  A    between atoms: _343  and  _344
REMARK  154  A    between atoms: _346  and  _348
REMARK  155  A    between atoms: _348  and  _349
REMARK  156  A    between atoms: _348  and  _351
REMARK  157  A    between atoms: _355  and  _356
REMARK  158  A    between atoms: _361  and  _363
REMARK  159  A    between atoms: _363  and  _364
REMARK  160  A    between atoms: _366  and  _368
REMARK  161  A    between atoms: _368  and  _369
REMARK  162  A    between atoms: _371  and  _373
REMARK  163  A    between atoms: _373  and  _374
REMARK  164  A    between atoms: _373  and  _376
REMARK  165  A    between atoms: _376  and  _377
REMARK  166  A    between atoms: _377  and  _378
REMARK  167  A    between atoms: _381  and  _383
REMARK  168  A    between atoms: _383  and  _384
REMARK  169  A    between atoms: _383  and  _386
REMARK  170  A    between atoms: _386  and  _387
REMARK  171  A    between atoms: _387  and  _388
REMARK  172  A    between atoms: _390  and  _392
REMARK  173  A    between atoms: _392  and  _393
REMARK  174  A    between atoms: _392  and  _395
REMARK  175  A    between atoms: _395  and  _396
REMARK  176  A    between atoms: _402  and  _404
REMARK  177  A    between atoms: _404  and  _405
REMARK  178  A    between atoms: _404  and  _407
REMARK  179  A    between atoms: _407  and  _408
REMARK  180  A    between atoms: _410  and  _412
REMARK  181  A    between atoms: _412  and  _413
REMARK  182  A    between atoms: _412  and  _415
REMARK  183  A    between atoms: _415  and  _416
REMARK  184  A    between atoms: _419  and  _421
REMARK  185  A    between atoms: _421  and  _422
REMARK  186  A    between atoms: _421  and  _424
REMARK  187  A    between atoms: _424  and  _425
REMARK  188  A    between atoms: _425  and  _426
REMARK  189  A    between atoms: _426  and  _427
REMARK  190  A    between atoms: _436  and  _438
REMARK  191  A    between atoms: _438  and  _439
REMARK  192  A    between atoms: _438  and  _441
REMARK  193  A    between atoms: _441  and  _442
REMARK  194  A    between atoms: _447  and  _448
REMARK  195  A    between atoms: _450  and  _452
REMARK  196  A    between atoms: _452  and  _453
REMARK  197  A    between atoms: _452  and  _455
REMARK  198  A    between atoms: _455  and  _456
REMARK  199  A    between atoms: _459  and  _461
REMARK  200  A    between atoms: _461  and  _462
REMARK  201  A    between atoms: _461  and  _464
REMARK  202  A    between atoms: _464  and  _465
REMARK  203  A    between atoms: _468  and  _470
REMARK  204  A    between atoms: _470  and  _471
REMARK  205  A    between atoms: _470  and  _473
REMARK  206  A    between atoms: _473  and  _474
REMARK  207  A    between atoms: _474  and  _475
REMARK  208  A    between atoms: _475  and  _476
REMARK  209  A    between atoms: _476  and  _477
REMARK  210  A    between atoms: _482  and  _483
REMARK  211  A    between atoms: _488  and  _490
REMARK  212  A    between atoms: _490  and  _491
REMARK  213  A    between atoms: _490  and  _493
REMARK  214  A    between atoms: _493  and  _494
REMARK  215  A    between atoms: _494  and  _495
REMARK  216  A    between atoms: _498  and  _500
REMARK  217  A    between atoms: _500  and  _501
REMARK  218  A    between atoms: _500  and  _503
REMARK  219  A    between atoms: _503  and  _504
REMARK  220  A    between atoms: _509  and  _511
REMARK  221  A    between atoms: _511  and  _512
REMARK  222  A    between atoms: _511  and  _514
REMARK  223  A    between atoms: _514  and  _515
REMARK  224  A    between atoms: _518  and  _520
REMARK  225  A    between atoms: _520  and  _521
REMARK  226  A    between atoms: _520  and  _523
REMARK  227  A    between atoms: _523  and  _524
REMARK  228  A    between atoms: _527  and  _529
REMARK  229  A    between atoms: _529  and  _530
REMARK  230  A    between atoms: _529  and  _532
REMARK  231  A    between atoms: _532  and  _533
REMARK  232  A    between atoms: _536  and  _538
REMARK  233  A    between atoms: _538  and  _539
REMARK  234  A    between atoms: _538  and  _541
REMARK  235  A    between atoms: _541  and  _542
REMARK  236  A    between atoms: _542  and  _543
REMARK  237  A    between atoms: _548  and  _550
REMARK  238  A    between atoms: _550  and  _551
REMARK  239  A    between atoms: _550  and  _553
REMARK  240  A    between atoms: _556  and  _558
REMARK  241  A    between atoms: _558  and  _559
REMARK  242  A    between atoms: _558  and  _561
REMARK  243  A    between atoms: _561  and  _562
REMARK  244  A    between atoms: _565  and  _567
REMARK  245  A    between atoms: _567  and  _568
REMARK  246  A    between atoms: _567  and  _570
REMARK  247  A    between atoms: _570  and  _571
REMARK  248  A    between atoms: _574  and  _576
REMARK  249  A    between atoms: _576  and  _577
REMARK  250  A    between atoms: _576  and  _579
REMARK  251  A    between atoms: _579  and  _580
REMARK  252  A    between atoms: _586  and  _588
REMARK  253  A    between atoms: _588  and  _589
REMARK  254  A    between atoms: _591  and  _593
REMARK  255  A    between atoms: _593  and  _594
REMARK  256  A    between atoms: _593  and  _596
REMARK  257  A    between atoms: _596  and  _597
REMARK  258  A    between atoms: _603  and  _605
REMARK  259  A    between atoms: _605  and  _606
REMARK  260  A    between atoms: _605  and  _608
REMARK  261  A    between atoms: _610  and  _612
REMARK  262  A    between atoms: _612  and  _613
REMARK  263  A    between atoms: _615  and  _617
REMARK  264  A    between atoms: _617  and  _618
REMARK  265  A    between atoms: _617  and  _620
REMARK  266  A    between atoms: _620  and  _621
REMARK  267  A    between atoms: _625  and  _626
REMARK  268  A    between atoms: _631  and  _633
REMARK  269  A    between atoms: _633  and  _634
REMARK  270  A    between atoms: _633  and  _636
REMARK  271  A    between atoms: _636  and  _637
REMARK  272  A    between atoms: _637  and  _638
REMARK  273  A    between atoms: _641  and  _643
REMARK  274  A    between atoms: _643  and  _644
REMARK  275  A    between atoms: _643  and  _646
REMARK  276  A    between atoms: _646  and  _647
REMARK  277  A    between atoms: _652  and  _653
REMARK  278  A    between atoms: _655  and  _657
REMARK  279  A    between atoms: _657  and  _658
REMARK  280  A    between atoms: _657  and  _660
REMARK  281  A    between atoms: _663  and  _665
REMARK  282  A    between atoms: _665  and  _666
REMARK  283  A    between atoms: _665  and  _668
REMARK  284  A    between atoms: _668  and  _669
REMARK  285  A    between atoms: _672  and  _674
REMARK  286  A    between atoms: _674  and  _675
REMARK  287  A    between atoms: _674  and  _677
REMARK  288  A    between atoms: _677  and  _678
REMARK  289  A    between atoms: _678  and  _679
REMARK  290  A    between atoms: _682  and  _684
REMARK  291  A    between atoms: _684  and  _685
REMARK  292  A    between atoms: _684  and  _687
REMARK  293  A    between atoms: _687  and  _688
REMARK  294  A    between atoms: _688  and  _689
REMARK  295  A    between atoms: _691  and  _693
REMARK  296  A    between atoms: _693  and  _694
REMARK  297  A    between atoms: _696  and  _698
REMARK  298  A    between atoms: _698  and  _699
REMARK  299  A    between atoms: _698  and  _701
REMARK  300  A    between atoms: _701  and  _702
REMARK  301  A    between atoms: _707  and  _708
REMARK  302  A    between atoms: _711  and  _712
REMARK  303  A    between atoms: _718  and  _719
REMARK  304  A    between atoms: _724  and  _726
REMARK  305  A    between atoms: _726  and  _727
REMARK  306  A    between atoms: _726  and  _729
REMARK  307  A    between atoms: _729  and  _730
REMARK  308  A    between atoms: _736  and  _738
REMARK  309  A    between atoms: _738  and  _739
REMARK  310  A    between atoms: _738  and  _741
REMARK  311  A    between atoms: _741  and  _742
REMARK  312  A    between atoms: _748  and  _750
REMARK  313  A    between atoms: _750  and  _751
REMARK  314  A    between atoms: _750  and  _753
REMARK  315  A    between atoms: _753  and  _754
REMARK  316  A    between atoms: _757  and  _759
REMARK  317  A    between atoms: _759  and  _760
REMARK  318  A    between atoms: _759  and  _762
REMARK  319  A    between atoms: _762  and  _763
REMARK  320  A    between atoms: _768  and  _770
REMARK  321  A    between atoms: _770  and  _771
REMARK  322  A    between atoms: _770  and  _773
REMARK  323  A    between atoms: _773  and  _774
REMARK  324  A    between atoms: _780  and  _782
REMARK  325  A    between atoms: _782  and  _783
REMARK  326  A    between atoms: _782  and  _785
REMARK  327  A    between atoms: _785  and  _786
REMARK  328  A    between atoms: _789  and  _791
REMARK  329  A    between atoms: _791  and  _792
REMARK  330  A    between atoms: _791  and  _794
REMARK  331  A    between atoms: _794  and  _795
REMARK  332  A    between atoms: _800  and  _801
REMARK                            x       y       z     vdW  Elec       q    Type
REMARK                         _______ _______ _______ _____ _____    ______ ____
ROOT
ATOM      1  O   HOH     1     -28.708  -0.338  14.383  0.00  0.00    +0.000 OA
ENDROOT
TORSDOF 0
REMARK  Name = ../refined-set-2016/3agl/3agl_pocket.pdb
REMARK  332 active torsions:
REMARK  status: ('A' for Active; 'I' for Inactive)
REMARK    1  A    between atoms: _1  and  _3
REMARK    2  A    between atoms: _3  and  _4
REMARK    3  A    between atoms: _3  and  _6
REMARK    4  A    between atoms: _6  and  _7
REMARK    5  A    between atoms: _10  and  _12
REMARK    6  A    between atoms: _12  and  _13
REMARK    7  A    between atoms: _12  and  _15
REMARK    8  A    between atoms: _15  and  _16
REMARK    9  A    between atoms: _19  and  _21
REMARK   10  A    between atoms: _21  and  _22
REMARK   11  A    between atoms: _24  and  _26
REMARK   12  A    between atoms: _26  and  _27
REMARK   13  A    between atoms: _26  and  _29
REMARK   14  A    between atoms: _29  and  _30
REMARK   15  A    between atoms: _33  and  _35
REMARK   16  A    between atoms: _35  and  _36
REMARK   17  A    between atoms: _38  and  _40
REMARK   18  A    between atoms: _40  and  _41
REMARK   19  A    between atoms: _40  and  _43
REMARK   20  A    between atoms: _43  and  _44
REMARK   21  A    between atoms: _46  and  _48
REMARK   22  A    between atoms: _48  and  _49
REMARK   23  A    between atoms: _48  and  _51
REMARK   24  A    between atoms: _51  and  _52
REMARK   25  A    between atoms: _58  and  _60
REMARK   26  A    between atoms: _60  and  _61
REMARK   27  A    between atoms: _63  and  _65
REMARK   28  A    between atoms: _65  and  _66
REMARK   29  A    between atoms: _65  and  _68
REMARK   30  A    between atoms: _68  and  _69
REMARK   31  A    between atoms: _69  and  _70
REMARK   32  A    between atoms: _70  and  _71
REMARK   33  A    between atoms: _80  and  _82
REMARK   34  A    between atoms: _82  and  _83
REMARK   35  A    between atoms: _82  and  _85
REMARK   36  A    between atoms: _88  and  _90
REMARK   37  A    between atoms: _90  and  _91
REMARK   38  A    between atoms: _90  and  _93
REMARK   39  A    between atoms: _93  and  _94
REMARK   40  A    between atoms: _94  and  _95
REMARK   41  A    between atoms: _97  and  _99
REMARK   42  A    between atoms: _99  and  _100
REMARK   43  A    between atoms: _99  and  _102
REMARK   44  A    between atoms: _102  and  _103
REMARK   45  A    between atoms: _106  and  _108
REMARK   46  A    between atoms: _108  and  _109
REMARK   47  A    between atoms: _108  and  _111
REMARK   48  A    between atoms: _111  and  _112
REMARK   49  A    between atoms: _117  and  _118
REMARK   50  A    between atoms: _120  and  _122
REMARK   51  A    between atoms: _122  and  _123
REMARK   52  A    between atoms: _126  and  _128
REMARK   53  A    between atoms: _128  and  _129
REMARK   54  A    between atoms: _128  and  _131
REMARK   55  A    between atoms: _131  and  _132
REMARK   56  A    between atoms: _132  and  _133
REMARK   57  A    between atoms: _135  and  _137
REMARK   58  A    between atoms: _137  and  _138
REMARK   59  A    between atoms: _137  and  _140
REMARK   60  A    between atoms: _140  and  _141
REMARK   61  A    between atoms: _141  and  _142
REMARK   62  A    between atoms: _142  and  _143
REMARK   63  A    between atoms: _143  and  _144
REMARK   64  A    between atoms: _148  and  _150
REMARK   65  A    between atoms: _150  and  _151
REMARK   66  A    between atoms: _150  and  _153
REMARK   67  A    between atoms: _153  and  _154
REMARK   68  A    between atoms: _157  and  _159
REMARK   69  A    between atoms: _159  and  _160
REMARK   70  A    between atoms: _159  and  _162
REMARK   71  A    between atoms: _162  and  _163
REMARK   72  A    between atoms: _166  and  _168
REMARK   73  A    between atoms: _168  and  _169
REMARK   74  A    between atoms: _168  and  _171
REMARK   75  A    between atoms: _171  and  _172
REMARK   76  A    between atoms: _175  and  _177
REMARK   77  A    between atoms: _177  and  _178
REMARK   78  A    between atoms: _177  and  _180
REMARK   79  A    between atoms: _180  and  _181
REMARK   80  A    between atoms: _181  and  _182
REMARK   81  A    between atoms: _182  and  _183
REMARK   82  A    between atoms: _183  and  _184
REMARK   83  A    between atoms: _188  and  _190
REMARK   84  A    between atoms: _190  and  _191
REMARK   85  A    between atoms: _190  and  _193
REMARK   86  A    between atoms: _196  and  _198
REMARK   87  A    between atoms: _198  and  _199
REMARK   88  A    between atoms: _198  and  _201
REMARK   89  A    between atoms: _201  and  _202
REMARK   90  A    between atoms: _205  and  _207
REMARK   91  A    between atoms: _207  and  _208
REMARK   92  A    between atoms: _207  and  _210
REMARK   93  A    between atoms: _210  and  _211
REMARK   94  A    between atoms: _211  and  _212
REMARK   95  A    between atoms: _217  and  _219
REMARK   96  A    between atoms: _219  and  _220
REMARK   97  A    between atoms: _219  and  _222
REMARK   98  A    between atoms: _222  and  _223
REMARK   99  A    between atoms: _228  and  _230
REMARK  100  A    between atoms: _230  and  _231
REMARK  101  A    between atoms: _230  and  _233
REMARK  102  A    between atoms: _233  and  _234
REMARK  103  A    between atoms: _237  and  _239
REMARK  104  A    between atoms: _239  and  _240
REMARK  105  A    between atoms: _239  and  _242
REMARK  106  A    between atoms: _242  and  _243
REMARK  107  A    between atoms: _243  and  _244
REMARK  108  A    between atoms: _247  and  _249
REMARK  109  A    between atoms: _249  and  _250
REMARK  110  A    between atoms: _249  and  _252
REMARK  111  A    between atoms: _252  and  _253
REMARK  112  A    between atoms: _256  and  _258
REMARK  113  A    between atoms: _258  and  _259
REMARK  114  A    between atoms: _258  and  _261
REMARK  115  A    between atoms: _264  and  _266
REMARK  116  A    between atoms: _266  and  _267
REMARK  117  A    between atoms: _266  and  _269
REMARK  118  A    between atoms: _269  and  _270
REMARK  119  A    between atoms: _270  and  _271
REMARK  120  A    between atoms: _271  and  _272
REMARK  121  A    between atoms: _272  and  _273
REMARK  122  A    between atoms: _277  and  _279
REMARK  123  A    between atoms: _279  and  _280
REMARK  124  A    between atoms: _279  and  _282
REMARK  125  A    between atoms: _282  and  _283
REMARK  126  A    between atoms: _286  and  _288
REMARK  127  A    between atoms: _288  and  _289
REMARK  128  A    between atoms: _288  and  _291
REMARK  129  A    between atoms: _291  and  _292
REMARK  130  A    between atoms: _292  and  _293
REMARK  131  A    between atoms: _296  and  _298
REMARK  132  A    between atoms: _298  and  _299
REMARK  133  A    between atoms: _298  and  _301
REMARK  134  A    between atoms: _301  and  _302
REMARK  135  A    between atoms: _302  and  _303
REMARK  136  A    between atoms: _305  and  _307
REMARK  137  A    between atoms: _307  and  _308
REMARK  138  A    between atoms: _307  and  _310
REMARK  139  A    between atoms: _313  and  _315
REMARK  140  A    between atoms: _315  and  _316
REMARK  141  A    between atoms: _315  and  _318
REMARK  142  A    between atoms: _318  and  _319
REMARK  143  A    between atoms: _319  and  _320
REMARK  144  A    between atoms: _322  and  _324
REMARK  145  A    between atoms: _324  and  _325
REMARK  146  A    between atoms: _324  and  _327
REMARK  147  A    between atoms: _327  and  _328
REMARK  148  A    between atoms: _328  and  _329
REMARK  149  A    between atoms: _332  and  _334
REMARK  150  A    between atoms: _334  and  _335
REMARK  151  A    between atoms: _334  and  _337
REMARK  152  A    between atoms: _337  and  _338
REMARK  153  A    between atoms: _343  and  _344
REMARK  154  A    between atoms: _346  and  _348
REMARK  155  A    between atoms: _348  and  _349
REMARK  156  A    between atoms: _348  and  _351
REMARK  157  A    between atoms: _355  and  _356
REMARK  158  A    between atoms: _361  and  _363
REMARK  159  A    between atoms: _363  and  _364
REMARK  160  A    between atoms: _366  and  _368
REMARK  161  A    between atoms: _368  and  _369
REMARK  162  A    between atoms: _371  and  _373
REMARK  163  A    between atoms: _373  and  _374
REMARK  164  A    between atoms: _373  and  _376
REMARK  165  A    between atoms: _376  and  _377
REMARK  166  A    between atoms: _377  and  _378
REMARK  167  A    between atoms: _381  and  _383
REMARK  168  A    between atoms: _383  and  _384
REMARK  169  A    between atoms: _383  and  _386
REMARK  170  A    between atoms: _386  and  _387
REMARK  171  A    between atoms: _387  and  _388
REMARK  172  A    between atoms: _390  and  _392
REMARK  173  A    between atoms: _392  and  _393
REMARK  174  A    between atoms: _392  and  _395
REMARK  175  A    between atoms: _395  and  _396
REMARK  176  A    between atoms: _402  and  _404
REMARK  177  A    between atoms: _404  and  _405
REMARK  178  A    between atoms: _404  and  _407
REMARK  179  A    between atoms: _407  and  _408
REMARK  180  A    between atoms: _410  and  _412
REMARK  181  A    between atoms: _412  and  _413
REMARK  182  A    between atoms: _412  and  _415
REMARK  183  A    between atoms: _415  and  _416
REMARK  184  A    between atoms: _419  and  _421
REMARK  185  A    between atoms: _421  and  _422
REMARK  186  A    between atoms: _421  and  _424
REMARK  187  A    between atoms: _424  and  _425
REMARK  188  A    between atoms: _425  and  _426
REMARK  189  A    between atoms: _426  and  _427
REMARK  190  A    between atoms: _436  and  _438
REMARK  191  A    between atoms: _438  and  _439
REMARK  192  A    between atoms: _438  and  _441
REMARK  193  A    between atoms: _441  and  _442
REMARK  194  A    between atoms: _447  and  _448
REMARK  195  A    between atoms: _450  and  _452
REMARK  196  A    between atoms: _452  and  _453
REMARK  197  A    between atoms: _452  and  _455
REMARK  198  A    between atoms: _455  and  _456
REMARK  199  A    between atoms: _459  and  _461
REMARK  200  A    between atoms: _461  and  _462
REMARK  201  A    between atoms: _461  and  _464
REMARK  202  A    between atoms: _464  and  _465
REMARK  203  A    between atoms: _468  and  _470
REMARK  204  A    between atoms: _470  and  _471
REMARK  205  A    between atoms: _470  and  _473
REMARK  206  A    between atoms: _473  and  _474
REMARK  207  A    between atoms: _474  and  _475
REMARK  208  A    between atoms: _475  and  _476
REMARK  209  A    between atoms: _476  and  _477
REMARK  210  A    between atoms: _482  and  _483
REMARK  211  A    between atoms: _488  and  _490
REMARK  212  A    between atoms: _490  and  _491
REMARK  213  A    between atoms: _490  and  _493
REMARK  214  A    between atoms: _493  and  _494
REMARK  215  A    between atoms: _494  and  _495
REMARK  216  A    between atoms: _498  and  _500
REMARK  217  A    between atoms: _500  and  _501
REMARK  218  A    between atoms: _500  and  _503
REMARK  219  A    between atoms: _503  and  _504
REMARK  220  A    between atoms: _509  and  _511
REMARK  221  A    between atoms: _511  and  _512
REMARK  222  A    between atoms: _511  and  _514
REMARK  223  A    between atoms: _514  and  _515
REMARK  224  A    between atoms: _518  and  _520
REMARK  225  A    between atoms: _520  and  _521
REMARK  226  A    between atoms: _520  and  _523
REMARK  227  A    between atoms: _523  and  _524
REMARK  228  A    between atoms: _527  and  _529
REMARK  229  A    between atoms: _529  and  _530
REMARK  230  A    between atoms: _529  and  _532
REMARK  231  A    between atoms: _532  and  _533
REMARK  232  A    between atoms: _536  and  _538
REMARK  233  A    between atoms: _538  and  _539
REMARK  234  A    between atoms: _538  and  _541
REMARK  235  A    between atoms: _541  and  _542
REMARK  236  A    between atoms: _542  and  _543
REMARK  237  A    between atoms: _548  and  _550
REMARK  238  A    between atoms: _550  and  _551
REMARK  239  A    between atoms: _550  and  _553
REMARK  240  A    between atoms: _556  and  _558
REMARK  241  A    between atoms: _558  and  _559
REMARK  242  A    between atoms: _558  and  _561
REMARK  243  A    between atoms: _561  and  _562
REMARK  244  A    between atoms: _565  and  _567
REMARK  245  A    between atoms: _567  and  _568
REMARK  246  A    between atoms: _567  and  _570
REMARK  247  A    between atoms: _570  and  _571
REMARK  248  A    between atoms: _574  and  _576
REMARK  249  A    between atoms: _576  and  _577
REMARK  250  A    between atoms: _576  and  _579
REMARK  251  A    between atoms: _579  and  _580
REMARK  252  A    between atoms: _586  and  _588
REMARK  253  A    between atoms: _588  and  _589
REMARK  254  A    between atoms: _591  and  _593
REMARK  255  A    between atoms: _593  and  _594
REMARK  256  A    between atoms: _593  and  _596
REMARK  257  A    between atoms: _596  and  _597
REMARK  258  A    between atoms: _603  and  _605
REMARK  259  A    between atoms: _605  and  _606
REMARK  260  A    between atoms: _605  and  _608
REMARK  261  A    between atoms: _610  and  _612
REMARK  262  A    between atoms: _612  and  _613
REMARK  263  A    between atoms: _615  and  _617
REMARK  264  A    between atoms: _617  and  _618
REMARK  265  A    between atoms: _617  and  _620
REMARK  266  A    between atoms: _620  and  _621
REMARK  267  A    between atoms: _625  and  _626
REMARK  268  A    between atoms: _631  and  _633
REMARK  269  A    between atoms: _633  and  _634
REMARK  270  A    between atoms: _633  and  _636
REMARK  271  A    between atoms: _636  and  _637
REMARK  272  A    between atoms: _637  and  _638
REMARK  273  A    between atoms: _641  and  _643
REMARK  274  A    between atoms: _643  and  _644
REMARK  275  A    between atoms: _643  and  _646
REMARK  276  A    between atoms: _646  and  _647
REMARK  277  A    between atoms: _652  and  _653
REMARK  278  A    between atoms: _655  and  _657
REMARK  279  A    between atoms: _657  and  _658
REMARK  280  A    between atoms: _657  and  _660
REMARK  281  A    between atoms: _663  and  _665
REMARK  282  A    between atoms: _665  and  _666
REMARK  283  A    between atoms: _665  and  _668
REMARK  284  A    between atoms: _668  and  _669
REMARK  285  A    between atoms: _672  and  _674
REMARK  286  A    between atoms: _674  and  _675
REMARK  287  A    between atoms: _674  and  _677
REMARK  288  A    between atoms: _677  and  _678
REMARK  289  A    between atoms: _678  and  _679
REMARK  290  A    between atoms: _682  and  _684
REMARK  291  A    between atoms: _684  and  _685
REMARK  292  A    between atoms: _684  and  _687
REMARK  293  A    between atoms: _687  and  _688
REMARK  294  A    between atoms: _688  and  _689
REMARK  295  A    between atoms: _691  and  _693
REMARK  296  A    between atoms: _693  and  _694
REMARK  297  A    between atoms: _696  and  _698
REMARK  298  A    between atoms: _698  and  _699
REMARK  299  A    between atoms: _698  and  _701
REMARK  300  A    between atoms: _701  and  _702
REMARK  301  A    between atoms: _707  and  _708
REMARK  302  A    between atoms: _711  and  _712
REMARK  303  A    between atoms: _718  and  _719
REMARK  304  A    between atoms: _724  and  _726
REMARK  305  A    between atoms: _726  and  _727
REMARK  306  A    between atoms: _726  and  _729
REMARK  307  A    between atoms: _729  and  _730
REMARK  308  A    between atoms: _736  and  _738
REMARK  309  A    between atoms: _738  and  _739
REMARK  310  A    between atoms: _738  and  _741
REMARK  311  A    between atoms: _741  and  _742
REMARK  312  A    between atoms: _748  and  _750
REMARK  313  A    between atoms: _750  and  _751
REMARK  314  A    between atoms: _750  and  _753
REMARK  315  A    between atoms: _753  and  _754
REMARK  316  A    between atoms: _757  and  _759
REMARK  317  A    between atoms: _759  and  _760
REMARK  318  A    between atoms: _759  and  _762
REMARK  319  A    between atoms: _762  and  _763
REMARK  320  A    between atoms: _768  and  _770
REMARK  321  A    between atoms: _770  and  _771
REMARK  322  A    between atoms: _770  and  _773
REMARK  323  A    between atoms: _773  and  _774
REMARK  324  A    between atoms: _780  and  _782
REMARK  325  A    between atoms: _782  and  _783
REMARK  326  A    between atoms: _782  and  _785
REMARK  327  A    between atoms: _785  and  _786
REMARK  328  A    between atoms: _789  and  _791
REMARK  329  A    between atoms: _791  and  _792
REMARK  330  A    between atoms: _791  and  _794
REMARK  331  A    between atoms: _794  and  _795
REMARK  332  A    between atoms: _800  and  _801
REMARK                            x       y       z     vdW  Elec       q    Type
REMARK                         _______ _______ _______ _____ _____    ______ ____
ROOT
ATOM      1  O   HOH     1     -13.563   6.996  16.674  0.00  0.00    +0.000 OA
ENDROOT
TORSDOF 0
REMARK  Name = ../refined-set-2016/3agl/3agl_pocket.pdb
REMARK  332 active torsions:
REMARK  status: ('A' for Active; 'I' for Inactive)
REMARK    1  A    between atoms: _1  and  _3
REMARK    2  A    between atoms: _3  and  _4
REMARK    3  A    between atoms: _3  and  _6
REMARK    4  A    between atoms: _6  and  _7
REMARK    5  A    between atoms: _10  and  _12
REMARK    6  A    between atoms: _12  and  _13
REMARK    7  A    between atoms: _12  and  _15
REMARK    8  A    between atoms: _15  and  _16
REMARK    9  A    between atoms: _19  and  _21
REMARK   10  A    between atoms: _21  and  _22
REMARK   11  A    between atoms: _24  and  _26
REMARK   12  A    between atoms: _26  and  _27
REMARK   13  A    between atoms: _26  and  _29
REMARK   14  A    between atoms: _29  and  _30
REMARK   15  A    between atoms: _33  and  _35
REMARK   16  A    between atoms: _35  and  _36
REMARK   17  A    between atoms: _38  and  _40
REMARK   18  A    between atoms: _40  and  _41
REMARK   19  A    between atoms: _40  and  _43
REMARK   20  A    between atoms: _43  and  _44
REMARK   21  A    between atoms: _46  and  _48
REMARK   22  A    between atoms: _48  and  _49
REMARK   23  A    between atoms: _48  and  _51
REMARK   24  A    between atoms: _51  and  _52
REMARK   25  A    between atoms: _58  and  _60
REMARK   26  A    between atoms: _60  and  _61
REMARK   27  A    between atoms: _63  and  _65
REMARK   28  A    between atoms: _65  and  _66
REMARK   29  A    between atoms: _65  and  _68
REMARK   30  A    between atoms: _68  and  _69
REMARK   31  A    between atoms: _69  and  _70
REMARK   32  A    between atoms: _70  and  _71
REMARK   33  A    between atoms: _80  and  _82
REMARK   34  A    between atoms: _82  and  _83
REMARK   35  A    between atoms: _82  and  _85
REMARK   36  A    between atoms: _88  and  _90
REMARK   37  A    between atoms: _90  and  _91
REMARK   38  A    between atoms: _90  and  _93
REMARK   39  A    between atoms: _93  and  _94
REMARK   40  A    between atoms: _94  and  _95
REMARK   41  A    between atoms: _97  and  _99
REMARK   42  A    between atoms: _99  and  _100
REMARK   43  A    between atoms: _99  and  _102
REMARK   44  A    between atoms: _102  and  _103
REMARK   45  A    between atoms: _106  and  _108
REMARK   46  A    between atoms: _108  and  _109
REMARK   47  A    between atoms: _108  and  _111
REMARK   48  A    between atoms: _111  and  _112
REMARK   49  A    between atoms: _117  and  _118
REMARK   50  A    between atoms: _120  and  _122
REMARK   51  A    between atoms: _122  and  _123
REMARK   52  A    between atoms: _126  and  _128
REMARK   53  A    between atoms: _128  and  _129
REMARK   54  A    between atoms: _128  and  _131
REMARK   55  A    between atoms: _131  and  _132
REMARK   56  A    between atoms: _132  and  _133
REMARK   57  A    between atoms: _135  and  _137
REMARK   58  A    between atoms: _137  and  _138
REMARK   59  A    between atoms: _137  and  _140
REMARK   60  A    between atoms: _140  and  _141
REMARK   61  A    between atoms: _141  and  _142
REMARK   62  A    between atoms: _142  and  _143
REMARK   63  A    between atoms: _143  and  _144
REMARK   64  A    between atoms: _148  and  _150
REMARK   65  A    between atoms: _150  and  _151
REMARK   66  A    between atoms: _150  and  _153
REMARK   67  A    between atoms: _153  and  _154
REMARK   68  A    between atoms: _157  and  _159
REMARK   69  A    between atoms: _159  and  _160
REMARK   70  A    between atoms: _159  and  _162
REMARK   71  A    between atoms: _162  and  _163
REMARK   72  A    between atoms: _166  and  _168
REMARK   73  A    between atoms: _168  and  _169
REMARK   74  A    between atoms: _168  and  _171
REMARK   75  A    between atoms: _171  and  _172
REMARK   76  A    between atoms: _175  and  _177
REMARK   77  A    between atoms: _177  and  _178
REMARK   78  A    between atoms: _177  and  _180
REMARK   79  A    between atoms: _180  and  _181
REMARK   80  A    between atoms: _181  and  _182
REMARK   81  A    between atoms: _182  and  _183
REMARK   82  A    between atoms: _183  and  _184
REMARK   83  A    between atoms: _188  and  _190
REMARK   84  A    between atoms: _190  and  _191
REMARK   85  A    between atoms: _190  and  _193
REMARK   86  A    between atoms: _196  and  _198
REMARK   87  A    between atoms: _198  and  _199
REMARK   88  A    between atoms: _198  and  _201
REMARK   89  A    between atoms: _201  and  _202
REMARK   90  A    between atoms: _205  and  _207
REMARK   91  A    between atoms: _207  and  _208
REMARK   92  A    between atoms: _207  and  _210
REMARK   93  A    between atoms: _210  and  _211
REMARK   94  A    between atoms: _211  and  _212
REMARK   95  A    between atoms: _217  and  _219
REMARK   96  A    between atoms: _219  and  _220
REMARK   97  A    between atoms: _219  and  _222
REMARK   98  A    between atoms: _222  and  _223
REMARK   99  A    between atoms: _228  and  _230
REMARK  100  A    between atoms: _230  and  _231
REMARK  101  A    between atoms: _230  and  _233
REMARK  102  A    between atoms: _233  and  _234
REMARK  103  A    between atoms: _237  and  _239
REMARK  104  A    between atoms: _239  and  _240
REMARK  105  A    between atoms: _239  and  _242
REMARK  106  A    between atoms: _242  and  _243
REMARK  107  A    between atoms: _243  and  _244
REMARK  108  A    between atoms: _247  and  _249
REMARK  109  A    between atoms: _249  and  _250
REMARK  110  A    between atoms: _249  and  _252
REMARK  111  A    between atoms: _252  and  _253
REMARK  112  A    between atoms: _256  and  _258
REMARK  113  A    between atoms: _258  and  _259
REMARK  114  A    between atoms: _258  and  _261
REMARK  115  A    between atoms: _264  and  _266
REMARK  116  A    between atoms: _266  and  _267
REMARK  117  A    between atoms: _266  and  _269
REMARK  118  A    between atoms: _269  and  _270
REMARK  119  A    between atoms: _270  and  _271
REMARK  120  A    between atoms: _271  and  _272
REMARK  121  A    between atoms: _272  and  _273
REMARK  122  A    between atoms: _277  and  _279
REMARK  123  A    between atoms: _279  and  _280
REMARK  124  A    between atoms: _279  and  _282
REMARK  125  A    between atoms: _282  and  _283
REMARK  126  A    between atoms: _286  and  _288
REMARK  127  A    between atoms: _288  and  _289
REMARK  128  A    between atoms: _288  and  _291
REMARK  129  A    between atoms: _291  and  _292
REMARK  130  A    between atoms: _292  and  _293
REMARK  131  A    between atoms: _296  and  _298
REMARK  132  A    between atoms: _298  and  _299
REMARK  133  A    between atoms: _298  and  _301
REMARK  134  A    between atoms: _301  and  _302
REMARK  135  A    between atoms: _302  and  _303
REMARK  136  A    between atoms: _305  and  _307
REMARK  137  A    between atoms: _307  and  _308
REMARK  138  A    between atoms: _307  and  _310
REMARK  139  A    between atoms: _313  and  _315
REMARK  140  A    between atoms: _315  and  _316
REMARK  141  A    between atoms: _315  and  _318
REMARK  142  A    between atoms: _318  and  _319
REMARK  143  A    between atoms: _319  and  _320
REMARK  144  A    between atoms: _322  and  _324
REMARK  145  A    between atoms: _324  and  _325
REMARK  146  A    between atoms: _324  and  _327
REMARK  147  A    between atoms: _327  and  _328
REMARK  148  A    between atoms: _328  and  _329
REMARK  149  A    between atoms: _332  and  _334
REMARK  150  A    between atoms: _334  and  _335
REMARK  151  A    between atoms: _334  and  _337
REMARK  152  A    between atoms: _337  and  _338
REMARK  153  A    between atoms: _343  and  _344
REMARK  154  A    between atoms: _346  and  _348
REMARK  155  A    between atoms: _348  and  _349
REMARK  156  A    between atoms: _348  and  _351
REMARK  157  A    between atoms: _355  and  _356
REMARK  158  A    between atoms: _361  and  _363
REMARK  159  A    between atoms: _363  and  _364
REMARK  160  A    between atoms: _366  and  _368
REMARK  161  A    between atoms: _368  and  _369
REMARK  162  A    between atoms: _371  and  _373
REMARK  163  A    between atoms: _373  and  _374
REMARK  164  A    between atoms: _373  and  _376
REMARK  165  A    between atoms: _376  and  _377
REMARK  166  A    between atoms: _377  and  _378
REMARK  167  A    between atoms: _381  and  _383
REMARK  168  A    between atoms: _383  and  _384
REMARK  169  A    between atoms: _383  and  _386
REMARK  170  A    between atoms: _386  and  _387
REMARK  171  A    between atoms: _387  and  _388
REMARK  172  A    between atoms: _390  and  _392
REMARK  173  A    between atoms: _392  and  _393
REMARK  174  A    between atoms: _392  and  _395
REMARK  175  A    between atoms: _395  and  _396
REMARK  176  A    between atoms: _402  and  _404
REMARK  177  A    between atoms: _404  and  _405
REMARK  178  A    between atoms: _404  and  _407
REMARK  179  A    between atoms: _407  and  _408
REMARK  180  A    between atoms: _410  and  _412
REMARK  181  A    between atoms: _412  and  _413
REMARK  182  A    between atoms: _412  and  _415
REMARK  183  A    between atoms: _415  and  _416
REMARK  184  A    between atoms: _419  and  _421
REMARK  185  A    between atoms: _421  and  _422
REMARK  186  A    between atoms: _421  and  _424
REMARK  187  A    between atoms: _424  and  _425
REMARK  188  A    between atoms: _425  and  _426
REMARK  189  A    between atoms: _426  and  _427
REMARK  190  A    between atoms: _436  and  _438
REMARK  191  A    between atoms: _438  and  _439
REMARK  192  A    between atoms: _438  and  _441
REMARK  193  A    between atoms: _441  and  _442
REMARK  194  A    between atoms: _447  and  _448
REMARK  195  A    between atoms: _450  and  _452
REMARK  196  A    between atoms: _452  and  _453
REMARK  197  A    between atoms: _452  and  _455
REMARK  198  A    between atoms: _455  and  _456
REMARK  199  A    between atoms: _459  and  _461
REMARK  200  A    between atoms: _461  and  _462
REMARK  201  A    between atoms: _461  and  _464
REMARK  202  A    between atoms: _464  and  _465
REMARK  203  A    between atoms: _468  and  _470
REMARK  204  A    between atoms: _470  and  _471
REMARK  205  A    between atoms: _470  and  _473
REMARK  206  A    between atoms: _473  and  _474
REMARK  207  A    between atoms: _474  and  _475
REMARK  208  A    between atoms: _475  and  _476
REMARK  209  A    between atoms: _476  and  _477
REMARK  210  A    between atoms: _482  and  _483
REMARK  211  A    between atoms: _488  and  _490
REMARK  212  A    between atoms: _490  and  _491
REMARK  213  A    between atoms: _490  and  _493
REMARK  214  A    between atoms: _493  and  _494
REMARK  215  A    between atoms: _494  and  _495
REMARK  216  A    between atoms: _498  and  _500
REMARK  217  A    between atoms: _500  and  _501
REMARK  218  A    between atoms: _500  and  _503
REMARK  219  A    between atoms: _503  and  _504
REMARK  220  A    between atoms: _509  and  _511
REMARK  221  A    between atoms: _511  and  _512
REMARK  222  A    between atoms: _511  and  _514
REMARK  223  A    between atoms: _514  and  _515
REMARK  224  A    between atoms: _518  and  _520
REMARK  225  A    between atoms: _520  and  _521
REMARK  226  A    between atoms: _520  and  _523
REMARK  227  A    between atoms: _523  and  _524
REMARK  228  A    between atoms: _527  and  _529
REMARK  229  A    between atoms: _529  and  _530
REMARK  230  A    between atoms: _529  and  _532
REMARK  231  A    between atoms: _532  and  _533
REMARK  232  A    between atoms: _536  and  _538
REMARK  233  A    between atoms: _538  and  _539
REMARK  234  A    between atoms: _538  and  _541
REMARK  235  A    between atoms: _541  and  _542
REMARK  236  A    between atoms: _542  and  _543
REMARK  237  A    between atoms: _548  and  _550
REMARK  238  A    between atoms: _550  and  _551
REMARK  239  A    between atoms: _550  and  _553
REMARK  240  A    between atoms: _556  and  _558
REMARK  241  A    between atoms: _558  and  _559
REMARK  242  A    between atoms: _558  and  _561
REMARK  243  A    between atoms: _561  and  _562
REMARK  244  A    between atoms: _565  and  _567
REMARK  245  A    between atoms: _567  and  _568
REMARK  246  A    between atoms: _567  and  _570
REMARK  247  A    between atoms: _570  and  _571
REMARK  248  A    between atoms: _574  and  _576
REMARK  249  A    between atoms: _576  and  _577
REMARK  250  A    between atoms: _576  and  _579
REMARK  251  A    between atoms: _579  and  _580
REMARK  252  A    between atoms: _586  and  _588
REMARK  253  A    between atoms: _588  and  _589
REMARK  254  A    between atoms: _591  and  _593
REMARK  255  A    between atoms: _593  and  _594
REMARK  256  A    between atoms: _593  and  _596
REMARK  257  A    between atoms: _596  and  _597
REMARK  258  A    between atoms: _603  and  _605
REMARK  259  A    between atoms: _605  and  _606
REMARK  260  A    between atoms: _605  and  _608
REMARK  261  A    between atoms: _610  and  _612
REMARK  262  A    between atoms: _612  and  _613
REMARK  263  A    between atoms: _615  and  _617
REMARK  264  A    between atoms: _617  and  _618
REMARK  265  A    between atoms: _617  and  _620
REMARK  266  A    between atoms: _620  and  _621
REMARK  267  A    between atoms: _625  and  _626
REMARK  268  A    between atoms: _631  and  _633
REMARK  269  A    between atoms: _633  and  _634
REMARK  270  A    between atoms: _633  and  _636
REMARK  271  A    between atoms: _636  and  _637
REMARK  272  A    between atoms: _637  and  _638
REMARK  273  A    between atoms: _641  and  _643
REMARK  274  A    between atoms: _643  and  _644
REMARK  275  A    between atoms: _643  and  _646
REMARK  276  A    between atoms: _646  and  _647
REMARK  277  A    between atoms: _652  and  _653
REMARK  278  A    between atoms: _655  and  _657
REMARK  279  A    between atoms: _657  and  _658
REMARK  280  A    between atoms: _657  and  _660
REMARK  281  A    between atoms: _663  and  _665
REMARK  282  A    between atoms: _665  and  _666
REMARK  283  A    between atoms: _665  and  _668
REMARK  284  A    between atoms: _668  and  _669
REMARK  285  A    between atoms: _672  and  _674
REMARK  286  A    between atoms: _674  and  _675
REMARK  287  A    between atoms: _674  and  _677
REMARK  288  A    between atoms: _677  and  _678
REMARK  289  A    between atoms: _678  and  _679
REMARK  290  A    between atoms: _682  and  _684
REMARK  291  A    between atoms: _684  and  _685
REMARK  292  A    between atoms: _684  and  _687
REMARK  293  A    between atoms: _687  and  _688
REMARK  294  A    between atoms: _688  and  _689
REMARK  295  A    between atoms: _691  and  _693
REMARK  296  A    between atoms: _693  and  _694
REMARK  297  A    between atoms: _696  and  _698
REMARK  298  A    between atoms: _698  and  _699
REMARK  299  A    between atoms: _698  and  _701
REMARK  300  A    between atoms: _701  and  _702
REMARK  301  A    between atoms: _707  and  _708
REMARK  302  A    between atoms: _711  and  _712
REMARK  303  A    between atoms: _718  and  _719
REMARK  304  A    between atoms: _724  and  _726
REMARK  305  A    between atoms: _726  and  _727
REMARK  306  A    between atoms: _726  and  _729
REMARK  307  A    between atoms: _729  and  _730
REMARK  308  A    between atoms: _736  and  _738
REMARK  309  A    between atoms: _738  and  _739
REMARK  310  A    between atoms: _738  and  _741
REMARK  311  A    between atoms: _741  and  _742
REMARK  312  A    between atoms: _748  and  _750
REMARK  313  A    between atoms: _750  and  _751
REMARK  314  A    between atoms: _750  and  _753
REMARK  315  A    between atoms: _753  and  _754
REMARK  316  A    between atoms: _757  and  _759
REMARK  317  A    between atoms: _759  and  _760
REMARK  318  A    between atoms: _759  and  _762
REMARK  319  A    between atoms: _762  and  _763
REMARK  320  A    between atoms: _768  and  _770
REMARK  321  A    between atoms: _770  and  _771
REMARK  322  A    between atoms: _770  and  _773
REMARK  323  A    between atoms: _773  and  _774
REMARK  324  A    between atoms: _780  and  _782
REMARK  325  A    between atoms: _782  and  _783
REMARK  326  A    between atoms: _782  and  _785
REMARK  327  A    between atoms: _785  and  _786
REMARK  328  A    between atoms: _789  and  _791
REMARK  329  A    between atoms: _791  and  _792
REMARK  330  A    between atoms: _791  and  _794
REMARK  331  A    between atoms: _794  and  _795
REMARK  332  A    between atoms: _800  and  _801
REMARK                            x       y       z     vdW  Elec       q    Type
REMARK                         _______ _______ _______ _____ _____    ______ ____
ROOT
ATOM      1  O   HOH     1     -14.028   8.054   6.440  0.00  0.00    +0.000 OA
ENDROOT
TORSDOF 0
