REMARK  Name = ../refined-set-2016/3bva/3bva_pocket.pdb
REMARK  225 active torsions:
REMARK  status: ('A' for Active; 'I' for Inactive)
REMARK    1  A    between atoms: _1  and  _3
REMARK    2  A    between atoms: _3  and  _4
REMARK    3  A    between atoms: _3  and  _6
REMARK    4  A    between atoms: _6  and  _7
REMARK    5  A    between atoms: _7  and  _8
REMARK    6  A    between atoms: _8  and  _9
REMARK    7  A    between atoms: _18  and  _20
REMARK    8  A    between atoms: _20  and  _21
REMARK    9  A    between atoms: _20  and  _23
REMARK   10  A    between atoms: _23  and  _24
REMARK   11  A    between atoms: _27  and  _29
REMARK   12  A    between atoms: _29  and  _30
REMARK   13  A    between atoms: _29  and  _32
REMARK   14  A    between atoms: _32  and  _33
REMARK   15  A    between atoms: _38  and  _40
REMARK   16  A    between atoms: _40  and  _41
REMARK   17  A    between atoms: _40  and  _43
REMARK   18  A    between atoms: _43  and  _44
REMARK   19  A    between atoms: _47  and  _49
REMARK   20  A    between atoms: _49  and  _50
REMARK   21  A    between atoms: _52  and  _54
REMARK   22  A    between atoms: _54  and  _55
REMARK   23  A    between atoms: _58  and  _60
REMARK   24  A    between atoms: _60  and  _61
REMARK   25  A    between atoms: _60  and  _63
REMARK   26  A    between atoms: _63  and  _64
REMARK   27  A    between atoms: _67  and  _69
REMARK   28  A    between atoms: _69  and  _70
REMARK   29  A    between atoms: _69  and  _72
REMARK   30  A    between atoms: _72  and  _73
REMARK   31  A    between atoms: _76  and  _78
REMARK   32  A    between atoms: _78  and  _79
REMARK   33  A    between atoms: _78  and  _81
REMARK   34  A    between atoms: _81  and  _82
REMARK   35  A    between atoms: _85  and  _87
REMARK   36  A    between atoms: _87  and  _88
REMARK   37  A    between atoms: _87  and  _90
REMARK   38  A    between atoms: _93  and  _95
REMARK   39  A    between atoms: _95  and  _96
REMARK   40  A    between atoms: _95  and  _98
REMARK   41  A    between atoms: _98  and  _99
REMARK   42  A    between atoms: _99  and  _100
REMARK   43  A    between atoms: _100  and  _101
REMARK   44  A    between atoms: _101  and  _102
REMARK   45  A    between atoms: _106  and  _108
REMARK   46  A    between atoms: _108  and  _109
REMARK   47  A    between atoms: _108  and  _111
REMARK   48  A    between atoms: _111  and  _112
REMARK   49  A    between atoms: _112  and  _113
REMARK   50  A    between atoms: _115  and  _117
REMARK   51  A    between atoms: _117  and  _118
REMARK   52  A    between atoms: _117  and  _120
REMARK   53  A    between atoms: _120  and  _121
REMARK   54  A    between atoms: _124  and  _126
REMARK   55  A    between atoms: _126  and  _127
REMARK   56  A    between atoms: _129  and  _131
REMARK   57  A    between atoms: _131  and  _132
REMARK   58  A    between atoms: _134  and  _136
REMARK   59  A    between atoms: _136  and  _137
REMARK   60  A    between atoms: _136  and  _139
REMARK   61  A    between atoms: _139  and  _140
REMARK   62  A    between atoms: _143  and  _145
REMARK   63  A    between atoms: _145  and  _146
REMARK   64  A    between atoms: _148  and  _150
REMARK   65  A    between atoms: _150  and  _151
REMARK   66  A    between atoms: _153  and  _155
REMARK   67  A    between atoms: _155  and  _156
REMARK   68  A    between atoms: _155  and  _158
REMARK   69  A    between atoms: _158  and  _159
REMARK   70  A    between atoms: _165  and  _167
REMARK   71  A    between atoms: _167  and  _168
REMARK   72  A    between atoms: _167  and  _170
REMARK   73  A    between atoms: _170  and  _171
REMARK   74  A    between atoms: _174  and  _176
REMARK   75  A    between atoms: _176  and  _177
REMARK   76  A    between atoms: _176  and  _179
REMARK   77  A    between atoms: _182  and  _184
REMARK   78  A    between atoms: _184  and  _185
REMARK   79  A    between atoms: _184  and  _187
REMARK   80  A    between atoms: _187  and  _188
REMARK   81  A    between atoms: _191  and  _193
REMARK   82  A    between atoms: _193  and  _194
REMARK   83  A    between atoms: _193  and  _196
REMARK   84  A    between atoms: _196  and  _197
REMARK   85  A    between atoms: _201  and  _202
REMARK   86  A    between atoms: _207  and  _209
REMARK   87  A    between atoms: _209  and  _210
REMARK   88  A    between atoms: _209  and  _212
REMARK   89  A    between atoms: _215  and  _217
REMARK   90  A    between atoms: _217  and  _218
REMARK   91  A    between atoms: _217  and  _220
REMARK   92  A    between atoms: _220  and  _221
REMARK   93  A    between atoms: _226  and  _228
REMARK   94  A    between atoms: _228  and  _229
REMARK   95  A    between atoms: _228  and  _231
REMARK   96  A    between atoms: _231  and  _232
REMARK   97  A    between atoms: _235  and  _237
REMARK   98  A    between atoms: _237  and  _238
REMARK   99  A    between atoms: _240  and  _242
REMARK  100  A    between atoms: _242  and  _243
REMARK  101  A    between atoms: _242  and  _245
REMARK  102  A    between atoms: _245  and  _246
REMARK  103  A    between atoms: _246  and  _247
REMARK  104  A    between atoms: _247  and  _248
REMARK  105  A    between atoms: _257  and  _259
REMARK  106  A    between atoms: _259  and  _260
REMARK  107  A    between atoms: _259  and  _262
REMARK  108  A    between atoms: _262  and  _263
REMARK  109  A    between atoms: _268  and  _270
REMARK  110  A    between atoms: _270  and  _271
REMARK  111  A    between atoms: _270  and  _273
REMARK  112  A    between atoms: _273  and  _274
REMARK  113  A    between atoms: _274  and  _275
REMARK  114  A    between atoms: _275  and  _276
REMARK  115  A    between atoms: _285  and  _287
REMARK  116  A    between atoms: _287  and  _288
REMARK  117  A    between atoms: _287  and  _290
REMARK  118  A    between atoms: _290  and  _291
REMARK  119  A    between atoms: _294  and  _296
REMARK  120  A    between atoms: _296  and  _297
REMARK  121  A    between atoms: _296  and  _299
REMARK  122  A    between atoms: _299  and  _300
REMARK  123  A    between atoms: _303  and  _305
REMARK  124  A    between atoms: _305  and  _306
REMARK  125  A    between atoms: _305  and  _308
REMARK  126  A    between atoms: _308  and  _309
REMARK  127  A    between atoms: _314  and  _316
REMARK  128  A    between atoms: _316  and  _317
REMARK  129  A    between atoms: _316  and  _319
REMARK  130  A    between atoms: _319  and  _320
REMARK  131  A    between atoms: _323  and  _325
REMARK  132  A    between atoms: _325  and  _326
REMARK  133  A    between atoms: _328  and  _330
REMARK  134  A    between atoms: _330  and  _331
REMARK  135  A    between atoms: _334  and  _336
REMARK  136  A    between atoms: _336  and  _337
REMARK  137  A    between atoms: _336  and  _339
REMARK  138  A    between atoms: _339  and  _340
REMARK  139  A    between atoms: _343  and  _345
REMARK  140  A    between atoms: _345  and  _346
REMARK  141  A    between atoms: _345  and  _348
REMARK  142  A    between atoms: _348  and  _349
REMARK  143  A    between atoms: _352  and  _354
REMARK  144  A    between atoms: _354  and  _355
REMARK  145  A    between atoms: _354  and  _357
REMARK  146  A    between atoms: _357  and  _358
REMARK  147  A    between atoms: _361  and  _363
REMARK  148  A    between atoms: _363  and  _364
REMARK  149  A    between atoms: _363  and  _366
REMARK  150  A    between atoms: _369  and  _371
REMARK  151  A    between atoms: _371  and  _372
REMARK  152  A    between atoms: _371  and  _374
REMARK  153  A    between atoms: _374  and  _375
REMARK  154  A    between atoms: _375  and  _376
REMARK  155  A    between atoms: _376  and  _377
REMARK  156  A    between atoms: _377  and  _378
REMARK  157  A    between atoms: _382  and  _384
REMARK  158  A    between atoms: _384  and  _385
REMARK  159  A    between atoms: _384  and  _387
REMARK  160  A    between atoms: _387  and  _388
REMARK  161  A    between atoms: _388  and  _389
REMARK  162  A    between atoms: _391  and  _393
REMARK  163  A    between atoms: _393  and  _394
REMARK  164  A    between atoms: _393  and  _396
REMARK  165  A    between atoms: _396  and  _397
REMARK  166  A    between atoms: _400  and  _402
REMARK  167  A    between atoms: _402  and  _403
REMARK  168  A    between atoms: _405  and  _407
REMARK  169  A    between atoms: _407  and  _408
REMARK  170  A    between atoms: _410  and  _412
REMARK  171  A    between atoms: _412  and  _413
REMARK  172  A    between atoms: _412  and  _415
REMARK  173  A    between atoms: _415  and  _416
REMARK  174  A    between atoms: _419  and  _421
REMARK  175  A    between atoms: _421  and  _422
REMARK  176  A    between atoms: _424  and  _426
REMARK  177  A    between atoms: _426  and  _427
REMARK  178  A    between atoms: _429  and  _431
REMARK  179  A    between atoms: _431  and  _432
REMARK  180  A    between atoms: _431  and  _434
REMARK  181  A    between atoms: _434  and  _435
REMARK  182  A    between atoms: _441  and  _443
REMARK  183  A    between atoms: _443  and  _444
REMARK  184  A    between atoms: _443  and  _446
REMARK  185  A    between atoms: _446  and  _447
REMARK  186  A    between atoms: _450  and  _452
REMARK  187  A    between atoms: _452  and  _453
REMARK  188  A    between atoms: _452  and  _455
REMARK  189  A    between atoms: _458  and  _460
REMARK  190  A    between atoms: _460  and  _461
REMARK  191  A    between atoms: _460  and  _463
REMARK  192  A    between atoms: _463  and  _464
REMARK  193  A    between atoms: _468  and  _469
REMARK  194  A    between atoms: _474  and  _476
REMARK  195  A    between atoms: _476  and  _477
REMARK  196  A    between atoms: _476  and  _479
REMARK  197  A    between atoms: _479  and  _480
REMARK  198  A    between atoms: _484  and  _485
REMARK  199  A    between atoms: _490  and  _492
REMARK  200  A    between atoms: _492  and  _493
REMARK  201  A    between atoms: _492  and  _495
REMARK  202  A    between atoms: _498  and  _500
REMARK  203  A    between atoms: _500  and  _501
REMARK  204  A    between atoms: _500  and  _503
REMARK  205  A    between atoms: _503  and  _504
REMARK  206  A    between atoms: _509  and  _511
REMARK  207  A    between atoms: _511  and  _512
REMARK  208  A    between atoms: _511  and  _514
REMARK  209  A    between atoms: _514  and  _515
REMARK  210  A    between atoms: _518  and  _520
REMARK  211  A    between atoms: _520  and  _521
REMARK  212  A    between atoms: _520  and  _523
REMARK  213  A    between atoms: _523  and  _524
REMARK  214  A    between atoms: _527  and  _529
REMARK  215  A    between atoms: _529  and  _530
REMARK  216  A    between atoms: _532  and  _534
REMARK  217  A    between atoms: _534  and  _535
REMARK  218  A    between atoms: _534  and  _537
REMARK  219  A    between atoms: _537  and  _538
REMARK  220  A    between atoms: _538  and  _539
REMARK  221  A    between atoms: _539  and  _540
REMARK  222  A    between atoms: _549  and  _551
REMARK  223  A    between atoms: _551  and  _552
REMARK  224  A    between atoms: _551  and  _554
REMARK  225  A    between atoms: _554  and  _555
REMARK                            x       y       z     vdW  Elec       q    Type
REMARK                         _______ _______ _______ _____ _____    ______ ____
ROOT
ATOM      1  NE  ARG A   1       5.923  20.220  15.588  0.00  0.00    -0.265 N 
ATOM      2  HE  ARG A   1       6.281  20.181  16.564  0.00  0.00    +0.259 HD
ATOM      3  CZ  ARG A   1       5.936  19.104  14.886  0.00  0.00    +0.342 C 
ATOM      4  NH2 ARG A   1       6.403  17.997  15.415  0.00  0.00    -0.292 N 
ATOM      5 HH21 ARG A   1       6.764  17.999  16.390  0.00  0.00    +0.255 HD
ATOM      6 HH22 ARG A   1       6.412  17.118  14.859  0.00  0.00    +0.255 HD
ATOM      7  NH1 ARG A   1       5.485  19.044  13.634  0.00  0.00    -0.292 N 
ATOM      8 HH11 ARG A   1       5.105  19.897  13.177  0.00  0.00    +0.255 HD
ATOM      9 HH12 ARG A   1       5.513  18.144  13.114  0.00  0.00    +0.255 HD
ENDROOT
BRANCH   1  10
ATOM     10  CD  ARG A   1       5.430  21.537  15.082  0.00  0.00    +0.174 C 
BRANCH  10  11
ATOM     11  CG  ARG A   1       5.040  22.440  16.212  0.00  0.00    +0.045 C 
BRANCH  11  12
ATOM     12  CB  ARG A   1       4.514  23.770  15.787  0.00  0.00    +0.029 C 
BRANCH  12  13
ATOM     13  CA  ARG A   1       3.948  24.609  16.927  0.00  0.00    +0.133 C 
BRANCH  13  14
ATOM     14  N   ARG A   1       2.709  23.970  17.419  0.00  0.00    -0.239 NA
ATOM     15  H   ARG A   1       2.368  23.083  16.996  0.00  0.00    +0.142 HD
ENDBRANCH  13  14
BRANCH  13  16
ATOM     16  C   ARG A   1       3.674  26.015  16.441  0.00  0.00    +0.224 C 
ATOM     17  O   ARG A   1       2.677  26.221  15.703  0.00  0.00    -0.287 OA
ENDBRANCH  13  16
ENDBRANCH  12  13
ENDBRANCH  11  12
ENDBRANCH  10  11
ENDBRANCH   1  10
TORSDOF 6
REMARK  Name = ../refined-set-2016/3bva/3bva_pocket.pdb
REMARK  225 active torsions:
REMARK  status: ('A' for Active; 'I' for Inactive)
REMARK    1  A    between atoms: _1  and  _3
REMARK    2  A    between atoms: _3  and  _4
REMARK    3  A    between atoms: _3  and  _6
REMARK    4  A    between atoms: _6  and  _7
REMARK    5  A    between atoms: _7  and  _8
REMARK    6  A    between atoms: _8  and  _9
REMARK    7  A    between atoms: _18  and  _20
REMARK    8  A    between atoms: _20  and  _21
REMARK    9  A    between atoms: _20  and  _23
REMARK   10  A    between atoms: _23  and  _24
REMARK   11  A    between atoms: _27  and  _29
REMARK   12  A    between atoms: _29  and  _30
REMARK   13  A    between atoms: _29  and  _32
REMARK   14  A    between atoms: _32  and  _33
REMARK   15  A    between atoms: _38  and  _40
REMARK   16  A    between atoms: _40  and  _41
REMARK   17  A    between atoms: _40  and  _43
REMARK   18  A    between atoms: _43  and  _44
REMARK   19  A    between atoms: _47  and  _49
REMARK   20  A    between atoms: _49  and  _50
REMARK   21  A    between atoms: _52  and  _54
REMARK   22  A    between atoms: _54  and  _55
REMARK   23  A    between atoms: _58  and  _60
REMARK   24  A    between atoms: _60  and  _61
REMARK   25  A    between atoms: _60  and  _63
REMARK   26  A    between atoms: _63  and  _64
REMARK   27  A    between atoms: _67  and  _69
REMARK   28  A    between atoms: _69  and  _70
REMARK   29  A    between atoms: _69  and  _72
REMARK   30  A    between atoms: _72  and  _73
REMARK   31  A    between atoms: _76  and  _78
REMARK   32  A    between atoms: _78  and  _79
REMARK   33  A    between atoms: _78  and  _81
REMARK   34  A    between atoms: _81  and  _82
REMARK   35  A    between atoms: _85  and  _87
REMARK   36  A    between atoms: _87  and  _88
REMARK   37  A    between atoms: _87  and  _90
REMARK   38  A    between atoms: _93  and  _95
REMARK   39  A    between atoms: _95  and  _96
REMARK   40  A    between atoms: _95  and  _98
REMARK   41  A    between atoms: _98  and  _99
REMARK   42  A    between atoms: _99  and  _100
REMARK   43  A    between atoms: _100  and  _101
REMARK   44  A    between atoms: _101  and  _102
REMARK   45  A    between atoms: _106  and  _108
REMARK   46  A    between atoms: _108  and  _109
REMARK   47  A    between atoms: _108  and  _111
REMARK   48  A    between atoms: _111  and  _112
REMARK   49  A    between atoms: _112  and  _113
REMARK   50  A    between atoms: _115  and  _117
REMARK   51  A    between atoms: _117  and  _118
REMARK   52  A    between atoms: _117  and  _120
REMARK   53  A    between atoms: _120  and  _121
REMARK   54  A    between atoms: _124  and  _126
REMARK   55  A    between atoms: _126  and  _127
REMARK   56  A    between atoms: _129  and  _131
REMARK   57  A    between atoms: _131  and  _132
REMARK   58  A    between atoms: _134  and  _136
REMARK   59  A    between atoms: _136  and  _137
REMARK   60  A    between atoms: _136  and  _139
REMARK   61  A    between atoms: _139  and  _140
REMARK   62  A    between atoms: _143  and  _145
REMARK   63  A    between atoms: _145  and  _146
REMARK   64  A    between atoms: _148  and  _150
REMARK   65  A    between atoms: _150  and  _151
REMARK   66  A    between atoms: _153  and  _155
REMARK   67  A    between atoms: _155  and  _156
REMARK   68  A    between atoms: _155  and  _158
REMARK   69  A    between atoms: _158  and  _159
REMARK   70  A    between atoms: _165  and  _167
REMARK   71  A    between atoms: _167  and  _168
REMARK   72  A    between atoms: _167  and  _170
REMARK   73  A    between atoms: _170  and  _171
REMARK   74  A    between atoms: _174  and  _176
REMARK   75  A    between atoms: _176  and  _177
REMARK   76  A    between atoms: _176  and  _179
REMARK   77  A    between atoms: _182  and  _184
REMARK   78  A    between atoms: _184  and  _185
REMARK   79  A    between atoms: _184  and  _187
REMARK   80  A    between atoms: _187  and  _188
REMARK   81  A    between atoms: _191  and  _193
REMARK   82  A    between atoms: _193  and  _194
REMARK   83  A    between atoms: _193  and  _196
REMARK   84  A    between atoms: _196  and  _197
REMARK   85  A    between atoms: _201  and  _202
REMARK   86  A    between atoms: _207  and  _209
REMARK   87  A    between atoms: _209  and  _210
REMARK   88  A    between atoms: _209  and  _212
REMARK   89  A    between atoms: _215  and  _217
REMARK   90  A    between atoms: _217  and  _218
REMARK   91  A    between atoms: _217  and  _220
REMARK   92  A    between atoms: _220  and  _221
REMARK   93  A    between atoms: _226  and  _228
REMARK   94  A    between atoms: _228  and  _229
REMARK   95  A    between atoms: _228  and  _231
REMARK   96  A    between atoms: _231  and  _232
REMARK   97  A    between atoms: _235  and  _237
REMARK   98  A    between atoms: _237  and  _238
REMARK   99  A    between atoms: _240  and  _242
REMARK  100  A    between atoms: _242  and  _243
REMARK  101  A    between atoms: _242  and  _245
REMARK  102  A    between atoms: _245  and  _246
REMARK  103  A    between atoms: _246  and  _247
REMARK  104  A    between atoms: _247  and  _248
REMARK  105  A    between atoms: _257  and  _259
REMARK  106  A    between atoms: _259  and  _260
REMARK  107  A    between atoms: _259  and  _262
REMARK  108  A    between atoms: _262  and  _263
REMARK  109  A    between atoms: _268  and  _270
REMARK  110  A    between atoms: _270  and  _271
REMARK  111  A    between atoms: _270  and  _273
REMARK  112  A    between atoms: _273  and  _274
REMARK  113  A    between atoms: _274  and  _275
REMARK  114  A    between atoms: _275  and  _276
REMARK  115  A    between atoms: _285  and  _287
REMARK  116  A    between atoms: _287  and  _288
REMARK  117  A    between atoms: _287  and  _290
REMARK  118  A    between atoms: _290  and  _291
REMARK  119  A    between atoms: _294  and  _296
REMARK  120  A    between atoms: _296  and  _297
REMARK  121  A    between atoms: _296  and  _299
REMARK  122  A    between atoms: _299  and  _300
REMARK  123  A    between atoms: _303  and  _305
REMARK  124  A    between atoms: _305  and  _306
REMARK  125  A    between atoms: _305  and  _308
REMARK  126  A    between atoms: _308  and  _309
REMARK  127  A    between atoms: _314  and  _316
REMARK  128  A    between atoms: _316  and  _317
REMARK  129  A    between atoms: _316  and  _319
REMARK  130  A    between atoms: _319  and  _320
REMARK  131  A    between atoms: _323  and  _325
REMARK  132  A    between atoms: _325  and  _326
REMARK  133  A    between atoms: _328  and  _330
REMARK  134  A    between atoms: _330  and  _331
REMARK  135  A    between atoms: _334  and  _336
REMARK  136  A    between atoms: _336  and  _337
REMARK  137  A    between atoms: _336  and  _339
REMARK  138  A    between atoms: _339  and  _340
REMARK  139  A    between atoms: _343  and  _345
REMARK  140  A    between atoms: _345  and  _346
REMARK  141  A    between atoms: _345  and  _348
REMARK  142  A    between atoms: _348  and  _349
REMARK  143  A    between atoms: _352  and  _354
REMARK  144  A    between atoms: _354  and  _355
REMARK  145  A    between atoms: _354  and  _357
REMARK  146  A    between atoms: _357  and  _358
REMARK  147  A    between atoms: _361  and  _363
REMARK  148  A    between atoms: _363  and  _364
REMARK  149  A    between atoms: _363  and  _366
REMARK  150  A    between atoms: _369  and  _371
REMARK  151  A    between atoms: _371  and  _372
REMARK  152  A    between atoms: _371  and  _374
REMARK  153  A    between atoms: _374  and  _375
REMARK  154  A    between atoms: _375  and  _376
REMARK  155  A    between atoms: _376  and  _377
REMARK  156  A    between atoms: _377  and  _378
REMARK  157  A    between atoms: _382  and  _384
REMARK  158  A    between atoms: _384  and  _385
REMARK  159  A    between atoms: _384  and  _387
REMARK  160  A    between atoms: _387  and  _388
REMARK  161  A    between atoms: _388  and  _389
REMARK  162  A    between atoms: _391  and  _393
REMARK  163  A    between atoms: _393  and  _394
REMARK  164  A    between atoms: _393  and  _396
REMARK  165  A    between atoms: _396  and  _397
REMARK  166  A    between atoms: _400  and  _402
REMARK  167  A    between atoms: _402  and  _403
REMARK  168  A    between atoms: _405  and  _407
REMARK  169  A    between atoms: _407  and  _408
REMARK  170  A    between atoms: _410  and  _412
REMARK  171  A    between atoms: _412  and  _413
REMARK  172  A    between atoms: _412  and  _415
REMARK  173  A    between atoms: _415  and  _416
REMARK  174  A    between atoms: _419  and  _421
REMARK  175  A    between atoms: _421  and  _422
REMARK  176  A    between atoms: _424  and  _426
REMARK  177  A    between atoms: _426  and  _427
REMARK  178  A    between atoms: _429  and  _431
REMARK  179  A    between atoms: _431  and  _432
REMARK  180  A    between atoms: _431  and  _434
REMARK  181  A    between atoms: _434  and  _435
REMARK  182  A    between atoms: _441  and  _443
REMARK  183  A    between atoms: _443  and  _444
REMARK  184  A    between atoms: _443  and  _446
REMARK  185  A    between atoms: _446  and  _447
REMARK  186  A    between atoms: _450  and  _452
REMARK  187  A    between atoms: _452  and  _453
REMARK  188  A    between atoms: _452  and  _455
REMARK  189  A    between atoms: _458  and  _460
REMARK  190  A    between atoms: _460  and  _461
REMARK  191  A    between atoms: _460  and  _463
REMARK  192  A    between atoms: _463  and  _464
REMARK  193  A    between atoms: _468  and  _469
REMARK  194  A    between atoms: _474  and  _476
REMARK  195  A    between atoms: _476  and  _477
REMARK  196  A    between atoms: _476  and  _479
REMARK  197  A    between atoms: _479  and  _480
REMARK  198  A    between atoms: _484  and  _485
REMARK  199  A    between atoms: _490  and  _492
REMARK  200  A    between atoms: _492  and  _493
REMARK  201  A    between atoms: _492  and  _495
REMARK  202  A    between atoms: _498  and  _500
REMARK  203  A    between atoms: _500  and  _501
REMARK  204  A    between atoms: _500  and  _503
REMARK  205  A    between atoms: _503  and  _504
REMARK  206  A    between atoms: _509  and  _511
REMARK  207  A    between atoms: _511  and  _512
REMARK  208  A    between atoms: _511  and  _514
REMARK  209  A    between atoms: _514  and  _515
REMARK  210  A    between atoms: _518  and  _520
REMARK  211  A    between atoms: _520  and  _521
REMARK  212  A    between atoms: _520  and  _523
REMARK  213  A    between atoms: _523  and  _524
REMARK  214  A    between atoms: _527  and  _529
REMARK  215  A    between atoms: _529  and  _530
REMARK  216  A    between atoms: _532  and  _534
REMARK  217  A    between atoms: _534  and  _535
REMARK  218  A    between atoms: _534  and  _537
REMARK  219  A    between atoms: _537  and  _538
REMARK  220  A    between atoms: _538  and  _539
REMARK  221  A    between atoms: _539  and  _540
REMARK  222  A    between atoms: _549  and  _551
REMARK  223  A    between atoms: _551  and  _552
REMARK  224  A    between atoms: _551  and  _554
REMARK  225  A    between atoms: _554  and  _555
REMARK                            x       y       z     vdW  Elec       q    Type
REMARK                         _______ _______ _______ _____ _____    ______ ____
ROOT
ATOM      1  CA  LEU A   1       8.795  27.945  12.945  0.00  0.00    +0.133 C 
ENDROOT
BRANCH   1   2
ATOM      2  N   LEU A   1       8.916  28.148  11.512  0.00  0.00    -0.239 NA
ATOM      3  H   LEU A   1       9.769  27.769  11.054  0.00  0.00    +0.142 HD
ENDBRANCH   1   2
BRANCH   1   4
ATOM      4  C   LEU A   1       9.491  29.054  13.711  0.00  0.00    +0.224 C 
ATOM      5  O   LEU A   1      10.681  29.278  13.559  0.00  0.00    -0.287 OA
ENDBRANCH   1   4
BRANCH   1   6
ATOM      6  CB  LEU A   1       9.441  26.592  13.265  0.00  0.00    +0.025 C 
BRANCH   6   7
ATOM      7  CG  LEU A   1       9.416  26.128  14.731  0.00  0.00    +0.002 C 
ATOM      8  CD2 LEU A   1       8.027  25.775  15.152  0.00  0.00    +0.000 C 
ATOM      9  CD1 LEU A   1      10.377  24.984  14.896  0.00  0.00    +0.000 C 
ENDBRANCH   6   7
ENDBRANCH   1   6
TORSDOF 4
REMARK  Name = ../refined-set-2016/3bva/3bva_pocket.pdb
REMARK  225 active torsions:
REMARK  status: ('A' for Active; 'I' for Inactive)
REMARK    1  A    between atoms: _1  and  _3
REMARK    2  A    between atoms: _3  and  _4
REMARK    3  A    between atoms: _3  and  _6
REMARK    4  A    between atoms: _6  and  _7
REMARK    5  A    between atoms: _7  and  _8
REMARK    6  A    between atoms: _8  and  _9
REMARK    7  A    between atoms: _18  and  _20
REMARK    8  A    between atoms: _20  and  _21
REMARK    9  A    between atoms: _20  and  _23
REMARK   10  A    between atoms: _23  and  _24
REMARK   11  A    between atoms: _27  and  _29
REMARK   12  A    between atoms: _29  and  _30
REMARK   13  A    between atoms: _29  and  _32
REMARK   14  A    between atoms: _32  and  _33
REMARK   15  A    between atoms: _38  and  _40
REMARK   16  A    between atoms: _40  and  _41
REMARK   17  A    between atoms: _40  and  _43
REMARK   18  A    between atoms: _43  and  _44
REMARK   19  A    between atoms: _47  and  _49
REMARK   20  A    between atoms: _49  and  _50
REMARK   21  A    between atoms: _52  and  _54
REMARK   22  A    between atoms: _54  and  _55
REMARK   23  A    between atoms: _58  and  _60
REMARK   24  A    between atoms: _60  and  _61
REMARK   25  A    between atoms: _60  and  _63
REMARK   26  A    between atoms: _63  and  _64
REMARK   27  A    between atoms: _67  and  _69
REMARK   28  A    between atoms: _69  and  _70
REMARK   29  A    between atoms: _69  and  _72
REMARK   30  A    between atoms: _72  and  _73
REMARK   31  A    between atoms: _76  and  _78
REMARK   32  A    between atoms: _78  and  _79
REMARK   33  A    between atoms: _78  and  _81
REMARK   34  A    between atoms: _81  and  _82
REMARK   35  A    between atoms: _85  and  _87
REMARK   36  A    between atoms: _87  and  _88
REMARK   37  A    between atoms: _87  and  _90
REMARK   38  A    between atoms: _93  and  _95
REMARK   39  A    between atoms: _95  and  _96
REMARK   40  A    between atoms: _95  and  _98
REMARK   41  A    between atoms: _98  and  _99
REMARK   42  A    between atoms: _99  and  _100
REMARK   43  A    between atoms: _100  and  _101
REMARK   44  A    between atoms: _101  and  _102
REMARK   45  A    between atoms: _106  and  _108
REMARK   46  A    between atoms: _108  and  _109
REMARK   47  A    between atoms: _108  and  _111
REMARK   48  A    between atoms: _111  and  _112
REMARK   49  A    between atoms: _112  and  _113
REMARK   50  A    between atoms: _115  and  _117
REMARK   51  A    between atoms: _117  and  _118
REMARK   52  A    between atoms: _117  and  _120
REMARK   53  A    between atoms: _120  and  _121
REMARK   54  A    between atoms: _124  and  _126
REMARK   55  A    between atoms: _126  and  _127
REMARK   56  A    between atoms: _129  and  _131
REMARK   57  A    between atoms: _131  and  _132
REMARK   58  A    between atoms: _134  and  _136
REMARK   59  A    between atoms: _136  and  _137
REMARK   60  A    between atoms: _136  and  _139
REMARK   61  A    between atoms: _139  and  _140
REMARK   62  A    between atoms: _143  and  _145
REMARK   63  A    between atoms: _145  and  _146
REMARK   64  A    between atoms: _148  and  _150
REMARK   65  A    between atoms: _150  and  _151
REMARK   66  A    between atoms: _153  and  _155
REMARK   67  A    between atoms: _155  and  _156
REMARK   68  A    between atoms: _155  and  _158
REMARK   69  A    between atoms: _158  and  _159
REMARK   70  A    between atoms: _165  and  _167
REMARK   71  A    between atoms: _167  and  _168
REMARK   72  A    between atoms: _167  and  _170
REMARK   73  A    between atoms: _170  and  _171
REMARK   74  A    between atoms: _174  and  _176
REMARK   75  A    between atoms: _176  and  _177
REMARK   76  A    between atoms: _176  and  _179
REMARK   77  A    between atoms: _182  and  _184
REMARK   78  A    between atoms: _184  and  _185
REMARK   79  A    between atoms: _184  and  _187
REMARK   80  A    between atoms: _187  and  _188
REMARK   81  A    between atoms: _191  and  _193
REMARK   82  A    between atoms: _193  and  _194
REMARK   83  A    between atoms: _193  and  _196
REMARK   84  A    between atoms: _196  and  _197
REMARK   85  A    between atoms: _201  and  _202
REMARK   86  A    between atoms: _207  and  _209
REMARK   87  A    between atoms: _209  and  _210
REMARK   88  A    between atoms: _209  and  _212
REMARK   89  A    between atoms: _215  and  _217
REMARK   90  A    between atoms: _217  and  _218
REMARK   91  A    between atoms: _217  and  _220
REMARK   92  A    between atoms: _220  and  _221
REMARK   93  A    between atoms: _226  and  _228
REMARK   94  A    between atoms: _228  and  _229
REMARK   95  A    between atoms: _228  and  _231
REMARK   96  A    between atoms: _231  and  _232
REMARK   97  A    between atoms: _235  and  _237
REMARK   98  A    between atoms: _237  and  _238
REMARK   99  A    between atoms: _240  and  _242
REMARK  100  A    between atoms: _242  and  _243
REMARK  101  A    between atoms: _242  and  _245
REMARK  102  A    between atoms: _245  and  _246
REMARK  103  A    between atoms: _246  and  _247
REMARK  104  A    between atoms: _247  and  _248
REMARK  105  A    between atoms: _257  and  _259
REMARK  106  A    between atoms: _259  and  _260
REMARK  107  A    between atoms: _259  and  _262
REMARK  108  A    between atoms: _262  and  _263
REMARK  109  A    between atoms: _268  and  _270
REMARK  110  A    between atoms: _270  and  _271
REMARK  111  A    between atoms: _270  and  _273
REMARK  112  A    between atoms: _273  and  _274
REMARK  113  A    between atoms: _274  and  _275
REMARK  114  A    between atoms: _275  and  _276
REMARK  115  A    between atoms: _285  and  _287
REMARK  116  A    between atoms: _287  and  _288
REMARK  117  A    between atoms: _287  and  _290
REMARK  118  A    between atoms: _290  and  _291
REMARK  119  A    between atoms: _294  and  _296
REMARK  120  A    between atoms: _296  and  _297
REMARK  121  A    between atoms: _296  and  _299
REMARK  122  A    between atoms: _299  and  _300
REMARK  123  A    between atoms: _303  and  _305
REMARK  124  A    between atoms: _305  and  _306
REMARK  125  A    between atoms: _305  and  _308
REMARK  126  A    between atoms: _308  and  _309
REMARK  127  A    between atoms: _314  and  _316
REMARK  128  A    between atoms: _316  and  _317
REMARK  129  A    between atoms: _316  and  _319
REMARK  130  A    between atoms: _319  and  _320
REMARK  131  A    between atoms: _323  and  _325
REMARK  132  A    between atoms: _325  and  _326
REMARK  133  A    between atoms: _328  and  _330
REMARK  134  A    between atoms: _330  and  _331
REMARK  135  A    between atoms: _334  and  _336
REMARK  136  A    between atoms: _336  and  _337
REMARK  137  A    between atoms: _336  and  _339
REMARK  138  A    between atoms: _339  and  _340
REMARK  139  A    between atoms: _343  and  _345
REMARK  140  A    between atoms: _345  and  _346
REMARK  141  A    between atoms: _345  and  _348
REMARK  142  A    between atoms: _348  and  _349
REMARK  143  A    between atoms: _352  and  _354
REMARK  144  A    between atoms: _354  and  _355
REMARK  145  A    between atoms: _354  and  _357
REMARK  146  A    between atoms: _357  and  _358
REMARK  147  A    between atoms: _361  and  _363
REMARK  148  A    between atoms: _363  and  _364
REMARK  149  A    between atoms: _363  and  _366
REMARK  150  A    between atoms: _369  and  _371
REMARK  151  A    between atoms: _371  and  _372
REMARK  152  A    between atoms: _371  and  _374
REMARK  153  A    between atoms: _374  and  _375
REMARK  154  A    between atoms: _375  and  _376
REMARK  155  A    between atoms: _376  and  _377
REMARK  156  A    between atoms: _377  and  _378
REMARK  157  A    between atoms: _382  and  _384
REMARK  158  A    between atoms: _384  and  _385
REMARK  159  A    between atoms: _384  and  _387
REMARK  160  A    between atoms: _387  and  _388
REMARK  161  A    between atoms: _388  and  _389
REMARK  162  A    between atoms: _391  and  _393
REMARK  163  A    between atoms: _393  and  _394
REMARK  164  A    between atoms: _393  and  _396
REMARK  165  A    between atoms: _396  and  _397
REMARK  166  A    between atoms: _400  and  _402
REMARK  167  A    between atoms: _402  and  _403
REMARK  168  A    between atoms: _405  and  _407
REMARK  169  A    between atoms: _407  and  _408
REMARK  170  A    between atoms: _410  and  _412
REMARK  171  A    between atoms: _412  and  _413
REMARK  172  A    between atoms: _412  and  _415
REMARK  173  A    between atoms: _415  and  _416
REMARK  174  A    between atoms: _419  and  _421
REMARK  175  A    between atoms: _421  and  _422
REMARK  176  A    between atoms: _424  and  _426
REMARK  177  A    between atoms: _426  and  _427
REMARK  178  A    between atoms: _429  and  _431
REMARK  179  A    between atoms: _431  and  _432
REMARK  180  A    between atoms: _431  and  _434
REMARK  181  A    between atoms: _434  and  _435
REMARK  182  A    between atoms: _441  and  _443
REMARK  183  A    between atoms: _443  and  _444
REMARK  184  A    between atoms: _443  and  _446
REMARK  185  A    between atoms: _446  and  _447
REMARK  186  A    between atoms: _450  and  _452
REMARK  187  A    between atoms: _452  and  _453
REMARK  188  A    between atoms: _452  and  _455
REMARK  189  A    between atoms: _458  and  _460
REMARK  190  A    between atoms: _460  and  _461
REMARK  191  A    between atoms: _460  and  _463
REMARK  192  A    between atoms: _463  and  _464
REMARK  193  A    between atoms: _468  and  _469
REMARK  194  A    between atoms: _474  and  _476
REMARK  195  A    between atoms: _476  and  _477
REMARK  196  A    between atoms: _476  and  _479
REMARK  197  A    between atoms: _479  and  _480
REMARK  198  A    between atoms: _484  and  _485
REMARK  199  A    between atoms: _490  and  _492
REMARK  200  A    between atoms: _492  and  _493
REMARK  201  A    between atoms: _492  and  _495
REMARK  202  A    between atoms: _498  and  _500
REMARK  203  A    between atoms: _500  and  _501
REMARK  204  A    between atoms: _500  and  _503
REMARK  205  A    between atoms: _503  and  _504
REMARK  206  A    between atoms: _509  and  _511
REMARK  207  A    between atoms: _511  and  _512
REMARK  208  A    between atoms: _511  and  _514
REMARK  209  A    between atoms: _514  and  _515
REMARK  210  A    between atoms: _518  and  _520
REMARK  211  A    between atoms: _520  and  _521
REMARK  212  A    between atoms: _520  and  _523
REMARK  213  A    between atoms: _523  and  _524
REMARK  214  A    between atoms: _527  and  _529
REMARK  215  A    between atoms: _529  and  _530
REMARK  216  A    between atoms: _532  and  _534
REMARK  217  A    between atoms: _534  and  _535
REMARK  218  A    between atoms: _534  and  _537
REMARK  219  A    between atoms: _537  and  _538
REMARK  220  A    between atoms: _538  and  _539
REMARK  221  A    between atoms: _539  and  _540
REMARK  222  A    between atoms: _549  and  _551
REMARK  223  A    between atoms: _551  and  _552
REMARK  224  A    between atoms: _551  and  _554
REMARK  225  A    between atoms: _554  and  _555
REMARK                            x       y       z     vdW  Elec       q    Type
REMARK                         _______ _______ _______ _____ _____    ______ ____
ROOT
ATOM      1  C   ALA A   4      18.407  30.359  17.649  0.00  0.00    +0.241 C 
ATOM      2  O   ALA A   4      17.726  31.370  17.632  0.00  0.00    -0.273 OA
ATOM      3  N   ASP A   5      19.726  30.364  17.586  0.00  0.00    -0.297 N 
ATOM      4  H   ASP A   5      20.246  29.463  17.606  0.00  0.00    +0.150 HD
ENDROOT
BRANCH   1   5
ATOM      5  CA  ALA A   4      17.738  28.995  17.626  0.00  0.00    +0.149 C 
ATOM      6  CB  ALA A   4      17.015  28.803  16.306  0.00  0.00    +0.031 C 
BRANCH   5   9
ATOM      7  C   GLY A   3      16.956  28.038  19.757  0.00  0.00    +0.243 C 
ATOM      8  O   GLY A   3      17.957  27.289  19.825  0.00  0.00    -0.273 OA
ATOM      9  N   ALA A   4      16.789  28.881  18.742  0.00  0.00    -0.297 N 
ATOM     10  H   ALA A   4      15.945  29.489  18.738  0.00  0.00    +0.150 HD
BRANCH   7  11
ATOM     11  CA  GLY A   3      15.955  28.025  20.844  0.00  0.00    +0.176 C 
BRANCH  11  14
ATOM     12  C   THR A   2      14.751  30.140  20.966  0.00  0.00    +0.243 C 
ATOM     13  O   THR A   2      15.676  30.726  21.556  0.00  0.00    -0.273 OA
ATOM     14  N   GLY A   3      14.801  28.870  20.678  0.00  0.00    -0.295 N 
ATOM     15  H   GLY A   3      13.938  28.432  20.298  0.00  0.00    +0.150 HD
BRANCH  12  16
ATOM     16  CA  THR A   2      13.510  30.934  20.605  0.00  0.00    +0.176 C 
BRANCH  16  18
ATOM     17  C   ASN A   1      13.136  30.021  18.353  0.00  0.00    +0.239 C 
ATOM     18  N   THR A   2      12.689  30.235  19.603  0.00  0.00    -0.295 N 
ATOM     19  H   THR A   2      11.741  29.899  19.868  0.00  0.00    +0.150 HD
ATOM     20  O   ASN A   1      14.232  30.412  17.980  0.00  0.00    -0.274 OA
BRANCH  17  21
ATOM     21  CA  ASN A   1      12.220  29.222  17.439  0.00  0.00    +0.154 C 
BRANCH  21  22
ATOM     22  N   ASN A   1      11.397  30.087  16.622  0.00  0.00    -0.238 NA
ATOM     23  H   ASN A   1      11.867  30.798  16.026  0.00  0.00    +0.142 HD
ENDBRANCH  21  22
BRANCH  21  24
ATOM     24  CB  ASN A   1      13.038  28.310  16.510  0.00  0.00    +0.111 C 
BRANCH  24  25
ATOM     25  CG  ASN A   1      13.795  27.211  17.143  0.00  0.00    +0.221 C 
ATOM     26  ND2 ASN A   1      13.829  27.144  18.392  0.00  0.00    -0.329 N 
ATOM     27 HD21 ASN A   1      13.359  27.873  18.965  0.00  0.00    +0.145 HD
ATOM     28 HD22 ASN A   1      14.328  26.359  18.857  0.00  0.00    +0.145 HD
ATOM     29  OD1 ASN A   1      14.372  26.317  16.386  0.00  0.00    -0.275 OA
ENDBRANCH  24  25
ENDBRANCH  21  24
ENDBRANCH  17  21
ENDBRANCH  16  18
BRANCH  16  30
ATOM     30  CB  THR A   2      12.703  31.306  21.869  0.00  0.00    +0.137 C 
ATOM     31  CG2 THR A   2      11.536  32.192  21.561  0.00  0.00    +0.034 C 
BRANCH  30  32
ATOM     32  OG1 THR A   2      12.222  30.094  22.485  0.00  0.00    -0.382 OA
ATOM     33  HG1 THR A   2      12.992  29.523  22.733  0.00  0.00    +0.210 HD
ENDBRANCH  30  32
ENDBRANCH  16  30
ENDBRANCH  12  16
ENDBRANCH  11  14
ENDBRANCH   7  11
ENDBRANCH   5   9
ENDBRANCH   1   5
BRANCH   3  34
ATOM     34  CA  ASP A   5      20.448  31.597  17.490  0.00  0.00    +0.160 C 
BRANCH  34  35
ATOM     35  C   ASP A   5      20.208  32.297  16.140  0.00  0.00    +0.241 C 
ATOM     36  O   ASP A   5      20.196  33.530  16.065  0.00  0.00    -0.273 OA
ATOM     37  N   ASP A   6      20.085  31.485  15.107  0.00  0.00    -0.297 N 
ATOM     38  H   ASP A   6      19.952  30.473  15.307  0.00  0.00    +0.150 HD
BRANCH  37  39
ATOM     39  CA  ASP A   6      20.121  31.897  13.692  0.00  0.00    +0.160 C 
BRANCH  39  40
ATOM     40  C   ASP A   6      18.849  31.428  13.008  0.00  0.00    +0.241 C 
ATOM     41  O   ASP A   6      18.161  30.547  13.470  0.00  0.00    -0.273 OA
ATOM     42  N   THR A   7      18.590  32.006  11.868  0.00  0.00    -0.295 N 
ATOM     43  H   THR A   7      19.243  32.759  11.571  0.00  0.00    +0.150 HD
BRANCH  42  44
ATOM     44  CA  THR A   7      17.505  31.716  10.982  0.00  0.00    +0.176 C 
BRANCH  44  45
ATOM     45  C   THR A   7      17.977  30.786   9.879  0.00  0.00    +0.243 C 
ATOM     46  N   VAL A   8      17.266  29.700   9.656  0.00  0.00    -0.298 N 
ATOM     47  H   VAL A   8      16.356  29.587  10.147  0.00  0.00    +0.150 HD
ATOM     48  O   THR A   7      19.043  31.066   9.268  0.00  0.00    -0.273 OA
BRANCH  46  49
ATOM     49  CA  VAL A   8      17.706  28.655   8.751  0.00  0.00    +0.137 C 
BRANCH  49  50
ATOM     50  CB  VAL A   8      18.388  27.391   9.284  0.00  0.00    +0.026 C 
ATOM     51  CG2 VAL A   8      17.545  26.481  10.131  0.00  0.00    +0.002 C 
ATOM     52  CG1 VAL A   8      18.901  26.599   8.064  0.00  0.00    +0.002 C 
ENDBRANCH  49  50
BRANCH  49  53
ATOM     53  C   VAL A   8      16.530  28.288   7.836  0.00  0.00    +0.227 C 
ATOM     54  O   VAL A   8      15.481  27.888   8.321  0.00  0.00    -0.286 OA
ENDBRANCH  49  53
ENDBRANCH  46  49
ENDBRANCH  44  45
BRANCH  44  55
ATOM     55  CB  THR A   7      16.961  33.051  10.410  0.00  0.00    +0.137 C 
ATOM     56  CG2 THR A   7      15.925  32.846   9.333  0.00  0.00    +0.034 C 
BRANCH  55  57
ATOM     57  OG1 THR A   7      16.360  33.762  11.517  0.00  0.00    -0.382 OA
ATOM     58  HG1 THR A   7      17.045  33.929  12.212  0.00  0.00    +0.210 HD
ENDBRANCH  55  57
ENDBRANCH  44  55
ENDBRANCH  42  44
ENDBRANCH  39  40
BRANCH  39  59
ATOM     59  CB  ASP A   6      21.319  31.244  12.980  0.00  0.00    +0.143 C 
BRANCH  59  60
ATOM     60  CG  ASP A   6      22.681  31.444  13.587  0.00  0.00    +0.367 C 
ATOM     61  OD2 ASP A   6      22.918  32.513  14.187  0.00  0.00    -0.246 OA
ATOM     62  OD1 ASP A   6      23.554  30.572  13.561  0.00  0.00    -0.246 OA
ENDBRANCH  59  60
ENDBRANCH  39  59
ENDBRANCH  37  39
ENDBRANCH  34  35
BRANCH  34  63
ATOM     63  CB  ASP A   5      21.947  31.391  17.671  0.00  0.00    +0.143 C 
BRANCH  63  64
ATOM     64  CG  ASP A   5      22.403  30.935  19.034  0.00  0.00    +0.367 C 
ATOM     65  OD2 ASP A   5      21.608  30.807  19.988  0.00  0.00    -0.246 OA
ATOM     66  OD1 ASP A   5      23.622  30.681  19.141  0.00  0.00    -0.246 OA
ENDBRANCH  63  64
ENDBRANCH  34  63
ENDBRANCH   3  34
TORSDOF 27
REMARK  Name = ../refined-set-2016/3bva/3bva_pocket.pdb
REMARK  225 active torsions:
REMARK  status: ('A' for Active; 'I' for Inactive)
REMARK    1  A    between atoms: _1  and  _3
REMARK    2  A    between atoms: _3  and  _4
REMARK    3  A    between atoms: _3  and  _6
REMARK    4  A    between atoms: _6  and  _7
REMARK    5  A    between atoms: _7  and  _8
REMARK    6  A    between atoms: _8  and  _9
REMARK    7  A    between atoms: _18  and  _20
REMARK    8  A    between atoms: _20  and  _21
REMARK    9  A    between atoms: _20  and  _23
REMARK   10  A    between atoms: _23  and  _24
REMARK   11  A    between atoms: _27  and  _29
REMARK   12  A    between atoms: _29  and  _30
REMARK   13  A    between atoms: _29  and  _32
REMARK   14  A    between atoms: _32  and  _33
REMARK   15  A    between atoms: _38  and  _40
REMARK   16  A    between atoms: _40  and  _41
REMARK   17  A    between atoms: _40  and  _43
REMARK   18  A    between atoms: _43  and  _44
REMARK   19  A    between atoms: _47  and  _49
REMARK   20  A    between atoms: _49  and  _50
REMARK   21  A    between atoms: _52  and  _54
REMARK   22  A    between atoms: _54  and  _55
REMARK   23  A    between atoms: _58  and  _60
REMARK   24  A    between atoms: _60  and  _61
REMARK   25  A    between atoms: _60  and  _63
REMARK   26  A    between atoms: _63  and  _64
REMARK   27  A    between atoms: _67  and  _69
REMARK   28  A    between atoms: _69  and  _70
REMARK   29  A    between atoms: _69  and  _72
REMARK   30  A    between atoms: _72  and  _73
REMARK   31  A    between atoms: _76  and  _78
REMARK   32  A    between atoms: _78  and  _79
REMARK   33  A    between atoms: _78  and  _81
REMARK   34  A    between atoms: _81  and  _82
REMARK   35  A    between atoms: _85  and  _87
REMARK   36  A    between atoms: _87  and  _88
REMARK   37  A    between atoms: _87  and  _90
REMARK   38  A    between atoms: _93  and  _95
REMARK   39  A    between atoms: _95  and  _96
REMARK   40  A    between atoms: _95  and  _98
REMARK   41  A    between atoms: _98  and  _99
REMARK   42  A    between atoms: _99  and  _100
REMARK   43  A    between atoms: _100  and  _101
REMARK   44  A    between atoms: _101  and  _102
REMARK   45  A    between atoms: _106  and  _108
REMARK   46  A    between atoms: _108  and  _109
REMARK   47  A    between atoms: _108  and  _111
REMARK   48  A    between atoms: _111  and  _112
REMARK   49  A    between atoms: _112  and  _113
REMARK   50  A    between atoms: _115  and  _117
REMARK   51  A    between atoms: _117  and  _118
REMARK   52  A    between atoms: _117  and  _120
REMARK   53  A    between atoms: _120  and  _121
REMARK   54  A    between atoms: _124  and  _126
REMARK   55  A    between atoms: _126  and  _127
REMARK   56  A    between atoms: _129  and  _131
REMARK   57  A    between atoms: _131  and  _132
REMARK   58  A    between atoms: _134  and  _136
REMARK   59  A    between atoms: _136  and  _137
REMARK   60  A    between atoms: _136  and  _139
REMARK   61  A    between atoms: _139  and  _140
REMARK   62  A    between atoms: _143  and  _145
REMARK   63  A    between atoms: _145  and  _146
REMARK   64  A    between atoms: _148  and  _150
REMARK   65  A    between atoms: _150  and  _151
REMARK   66  A    between atoms: _153  and  _155
REMARK   67  A    between atoms: _155  and  _156
REMARK   68  A    between atoms: _155  and  _158
REMARK   69  A    between atoms: _158  and  _159
REMARK   70  A    between atoms: _165  and  _167
REMARK   71  A    between atoms: _167  and  _168
REMARK   72  A    between atoms: _167  and  _170
REMARK   73  A    between atoms: _170  and  _171
REMARK   74  A    between atoms: _174  and  _176
REMARK   75  A    between atoms: _176  and  _177
REMARK   76  A    between atoms: _176  and  _179
REMARK   77  A    between atoms: _182  and  _184
REMARK   78  A    between atoms: _184  and  _185
REMARK   79  A    between atoms: _184  and  _187
REMARK   80  A    between atoms: _187  and  _188
REMARK   81  A    between atoms: _191  and  _193
REMARK   82  A    between atoms: _193  and  _194
REMARK   83  A    between atoms: _193  and  _196
REMARK   84  A    between atoms: _196  and  _197
REMARK   85  A    between atoms: _201  and  _202
REMARK   86  A    between atoms: _207  and  _209
REMARK   87  A    between atoms: _209  and  _210
REMARK   88  A    between atoms: _209  and  _212
REMARK   89  A    between atoms: _215  and  _217
REMARK   90  A    between atoms: _217  and  _218
REMARK   91  A    between atoms: _217  and  _220
REMARK   92  A    between atoms: _220  and  _221
REMARK   93  A    between atoms: _226  and  _228
REMARK   94  A    between atoms: _228  and  _229
REMARK   95  A    between atoms: _228  and  _231
REMARK   96  A    between atoms: _231  and  _232
REMARK   97  A    between atoms: _235  and  _237
REMARK   98  A    between atoms: _237  and  _238
REMARK   99  A    between atoms: _240  and  _242
REMARK  100  A    between atoms: _242  and  _243
REMARK  101  A    between atoms: _242  and  _245
REMARK  102  A    between atoms: _245  and  _246
REMARK  103  A    between atoms: _246  and  _247
REMARK  104  A    between atoms: _247  and  _248
REMARK  105  A    between atoms: _257  and  _259
REMARK  106  A    between atoms: _259  and  _260
REMARK  107  A    between atoms: _259  and  _262
REMARK  108  A    between atoms: _262  and  _263
REMARK  109  A    between atoms: _268  and  _270
REMARK  110  A    between atoms: _270  and  _271
REMARK  111  A    between atoms: _270  and  _273
REMARK  112  A    between atoms: _273  and  _274
REMARK  113  A    between atoms: _274  and  _275
REMARK  114  A    between atoms: _275  and  _276
REMARK  115  A    between atoms: _285  and  _287
REMARK  116  A    between atoms: _287  and  _288
REMARK  117  A    between atoms: _287  and  _290
REMARK  118  A    between atoms: _290  and  _291
REMARK  119  A    between atoms: _294  and  _296
REMARK  120  A    between atoms: _296  and  _297
REMARK  121  A    between atoms: _296  and  _299
REMARK  122  A    between atoms: _299  and  _300
REMARK  123  A    between atoms: _303  and  _305
REMARK  124  A    between atoms: _305  and  _306
REMARK  125  A    between atoms: _305  and  _308
REMARK  126  A    between atoms: _308  and  _309
REMARK  127  A    between atoms: _314  and  _316
REMARK  128  A    between atoms: _316  and  _317
REMARK  129  A    between atoms: _316  and  _319
REMARK  130  A    between atoms: _319  and  _320
REMARK  131  A    between atoms: _323  and  _325
REMARK  132  A    between atoms: _325  and  _326
REMARK  133  A    between atoms: _328  and  _330
REMARK  134  A    between atoms: _330  and  _331
REMARK  135  A    between atoms: _334  and  _336
REMARK  136  A    between atoms: _336  and  _337
REMARK  137  A    between atoms: _336  and  _339
REMARK  138  A    between atoms: _339  and  _340
REMARK  139  A    between atoms: _343  and  _345
REMARK  140  A    between atoms: _345  and  _346
REMARK  141  A    between atoms: _345  and  _348
REMARK  142  A    between atoms: _348  and  _349
REMARK  143  A    between atoms: _352  and  _354
REMARK  144  A    between atoms: _354  and  _355
REMARK  145  A    between atoms: _354  and  _357
REMARK  146  A    between atoms: _357  and  _358
REMARK  147  A    between atoms: _361  and  _363
REMARK  148  A    between atoms: _363  and  _364
REMARK  149  A    between atoms: _363  and  _366
REMARK  150  A    between atoms: _369  and  _371
REMARK  151  A    between atoms: _371  and  _372
REMARK  152  A    between atoms: _371  and  _374
REMARK  153  A    between atoms: _374  and  _375
REMARK  154  A    between atoms: _375  and  _376
REMARK  155  A    between atoms: _376  and  _377
REMARK  156  A    between atoms: _377  and  _378
REMARK  157  A    between atoms: _382  and  _384
REMARK  158  A    between atoms: _384  and  _385
REMARK  159  A    between atoms: _384  and  _387
REMARK  160  A    between atoms: _387  and  _388
REMARK  161  A    between atoms: _388  and  _389
REMARK  162  A    between atoms: _391  and  _393
REMARK  163  A    between atoms: _393  and  _394
REMARK  164  A    between atoms: _393  and  _396
REMARK  165  A    between atoms: _396  and  _397
REMARK  166  A    between atoms: _400  and  _402
REMARK  167  A    between atoms: _402  and  _403
REMARK  168  A    between atoms: _405  and  _407
REMARK  169  A    between atoms: _407  and  _408
REMARK  170  A    between atoms: _410  and  _412
REMARK  171  A    between atoms: _412  and  _413
REMARK  172  A    between atoms: _412  and  _415
REMARK  173  A    between atoms: _415  and  _416
REMARK  174  A    between atoms: _419  and  _421
REMARK  175  A    between atoms: _421  and  _422
REMARK  176  A    between atoms: _424  and  _426
REMARK  177  A    between atoms: _426  and  _427
REMARK  178  A    between atoms: _429  and  _431
REMARK  179  A    between atoms: _431  and  _432
REMARK  180  A    between atoms: _431  and  _434
REMARK  181  A    between atoms: _434  and  _435
REMARK  182  A    between atoms: _441  and  _443
REMARK  183  A    between atoms: _443  and  _444
REMARK  184  A    between atoms: _443  and  _446
REMARK  185  A    between atoms: _446  and  _447
REMARK  186  A    between atoms: _450  and  _452
REMARK  187  A    between atoms: _452  and  _453
REMARK  188  A    between atoms: _452  and  _455
REMARK  189  A    between atoms: _458  and  _460
REMARK  190  A    between atoms: _460  and  _461
REMARK  191  A    between atoms: _460  and  _463
REMARK  192  A    between atoms: _463  and  _464
REMARK  193  A    between atoms: _468  and  _469
REMARK  194  A    between atoms: _474  and  _476
REMARK  195  A    between atoms: _476  and  _477
REMARK  196  A    between atoms: _476  and  _479
REMARK  197  A    between atoms: _479  and  _480
REMARK  198  A    between atoms: _484  and  _485
REMARK  199  A    between atoms: _490  and  _492
REMARK  200  A    between atoms: _492  and  _493
REMARK  201  A    between atoms: _492  and  _495
REMARK  202  A    between atoms: _498  and  _500
REMARK  203  A    between atoms: _500  and  _501
REMARK  204  A    between atoms: _500  and  _503
REMARK  205  A    between atoms: _503  and  _504
REMARK  206  A    between atoms: _509  and  _511
REMARK  207  A    between atoms: _511  and  _512
REMARK  208  A    between atoms: _511  and  _514
REMARK  209  A    between atoms: _514  and  _515
REMARK  210  A    between atoms: _518  and  _520
REMARK  211  A    between atoms: _520  and  _521
REMARK  212  A    between atoms: _520  and  _523
REMARK  213  A    between atoms: _523  and  _524
REMARK  214  A    between atoms: _527  and  _529
REMARK  215  A    between atoms: _529  and  _530
REMARK  216  A    between atoms: _532  and  _534
REMARK  217  A    between atoms: _534  and  _535
REMARK  218  A    between atoms: _534  and  _537
REMARK  219  A    between atoms: _537  and  _538
REMARK  220  A    between atoms: _538  and  _539
REMARK  221  A    between atoms: _539  and  _540
REMARK  222  A    between atoms: _549  and  _551
REMARK  223  A    between atoms: _551  and  _552
REMARK  224  A    between atoms: _551  and  _554
REMARK  225  A    between atoms: _554  and  _555
REMARK                            x       y       z     vdW  Elec       q    Type
REMARK                         _______ _______ _______ _____ _____    ______ ____
ROOT
ATOM      1  C   GLY A   5      21.414  19.418  17.856  0.00  0.00    +0.243 C 
ATOM      2  N   ILE A   6      20.166  19.084  18.152  0.00  0.00    -0.297 N 
ATOM      3  H   ILE A   6      19.435  19.814  18.271  0.00  0.00    +0.150 HD
ATOM      4  O   GLY A   5      22.326  18.618  17.771  0.00  0.00    -0.273 OA
ENDROOT
BRANCH   1   5
ATOM      5  CA  GLY A   5      21.658  20.873  17.606  0.00  0.00    +0.176 C 
BRANCH   5   7
ATOM      6  C   GLY A   4      23.204  22.187  16.249  0.00  0.00    +0.243 C 
ATOM      7  N   GLY A   5      22.752  21.025  16.648  0.00  0.00    -0.295 N 
ATOM      8  H   GLY A   5      23.194  20.166  16.264  0.00  0.00    +0.150 HD
ATOM      9  O   GLY A   4      22.752  23.251  16.644  0.00  0.00    -0.273 OA
BRANCH   6  10
ATOM     10  CA  GLY A   4      24.374  22.050  15.308  0.00  0.00    +0.176 C 
BRANCH  10  12
ATOM     11  C   ILE A   3      24.792  23.299  13.277  0.00  0.00    +0.241 C 
ATOM     12  N   GLY A   4      24.659  23.267  14.581  0.00  0.00    -0.295 N 
ATOM     13  H   GLY A   4      24.763  24.154  15.115  0.00  0.00    +0.150 HD
ATOM     14  O   ILE A   3      24.568  22.330  12.564  0.00  0.00    -0.273 OA
BRANCH  11  15
ATOM     15  CA  ILE A   3      25.282  24.616  12.669  0.00  0.00    +0.149 C 
BRANCH  15  18
ATOM     16  C   MET A   2      27.390  24.859  11.473  0.00  0.00    +0.241 C 
ATOM     17  O   MET A   2      27.858  25.642  12.291  0.00  0.00    -0.273 OA
ATOM     18  N   ILE A   3      26.182  24.325  11.545  0.00  0.00    -0.297 N 
ATOM     19  H   ILE A   3      25.863  23.685  10.790  0.00  0.00    +0.150 HD
BRANCH  16  20
ATOM     20  CA  MET A   2      28.222  24.453  10.265  0.00  0.00    +0.149 C 
BRANCH  20  22
ATOM     21  C   LYS A   1      28.436  26.117   8.516  0.00  0.00    +0.238 C 
ATOM     22  N   MET A   2      28.800  25.656   9.690  0.00  0.00    -0.297 N 
ATOM     23  H   MET A   2      29.527  26.170  10.227  0.00  0.00    +0.150 HD
ATOM     24  O   LYS A   1      27.704  25.504   7.734  0.00  0.00    -0.274 OA
BRANCH  21  25
ATOM     25  CA  LYS A   1      28.895  27.499   8.139  0.00  0.00    +0.145 C 
BRANCH  25  26
ATOM     26  N   LYS A   1      29.001  27.571   6.687  0.00  0.00    -0.238 NA
ATOM     27  H   LYS A   1      28.316  27.043   6.109  0.00  0.00    +0.142 HD
ENDBRANCH  25  26
BRANCH  25  28
ATOM     28  CB  LYS A   1      27.884  28.597   8.648  0.00  0.00    +0.026 C 
BRANCH  28  29
ATOM     29  CG  LYS A   1      27.868  28.807  10.154  0.00  0.00    -0.000 C 
BRANCH  29  30
ATOM     30  CD  LYS A   1      26.910  29.881  10.611  0.00  0.00    -0.024 C 
BRANCH  30  31
ATOM     31  CE  LYS A   1      26.835  30.083  12.109  0.00  0.00    -0.086 C 
BRANCH  31  32
ATOM     32  NZ  LYS A   1      27.797  31.137  12.490  0.00  0.00    +0.380 N 
ATOM     33  HZ1 LYS A   1      27.756  31.287  13.518  0.00  0.00    -0.089 HD
ATOM     34  HZ2 LYS A   1      28.757  30.843  12.219  0.00  0.00    -0.089 HD
ATOM     35  HZ3 LYS A   1      27.553  32.021  12.000  0.00  0.00    -0.089 HD
ENDBRANCH  31  32
ENDBRANCH  30  31
ENDBRANCH  29  30
ENDBRANCH  28  29
ENDBRANCH  25  28
ENDBRANCH  21  25
ENDBRANCH  20  22
BRANCH  20  36
ATOM     36  CB  MET A   2      29.272  23.468  10.766  0.00  0.00    +0.041 C 
BRANCH  36  37
ATOM     37  CG  MET A   2      30.021  22.730   9.652  0.00  0.00    +0.060 C 
BRANCH  37  38
ATOM     38  SD  MET A   2      29.089  21.348   9.005  0.00  0.00    -0.139 S 
ATOM     39  CE  MET A   2      29.714  20.001  10.045  0.00  0.00    +0.069 C 
ENDBRANCH  37  38
ENDBRANCH  36  37
ENDBRANCH  20  36
ENDBRANCH  16  20
ENDBRANCH  15  18
BRANCH  15  40
ATOM     40  CB  ILE A   3      24.085  25.472  12.235  0.00  0.00    +0.027 C 
ATOM     41  CG2 ILE A   3      24.569  26.877  11.975  0.00  0.00    +0.002 C 
BRANCH  40  42
ATOM     42  CG1 ILE A   3      23.289  24.852  11.079  0.00  0.00    +0.002 C 
ATOM     43  CD1 ILE A   3      21.998  25.532  10.734  0.00  0.00    +0.000 C 
ENDBRANCH  40  42
ENDBRANCH  15  40
ENDBRANCH  11  15
ENDBRANCH  10  12
ENDBRANCH   6  10
ENDBRANCH   5   7
ENDBRANCH   1   5
BRANCH   2  44
ATOM     44  CA  ILE A   6      19.834  17.652  18.310  0.00  0.00    +0.149 C 
BRANCH  44  45
ATOM     45  C   ILE A   6      20.107  16.938  17.004  0.00  0.00    +0.241 C 
ATOM     46  N   GLY A   7      20.819  15.815  17.095  0.00  0.00    -0.295 N 
ATOM     47  H   GLY A   7      21.106  15.482  18.038  0.00  0.00    +0.150 HD
ATOM     48  O   ILE A   6      19.701  17.354  15.935  0.00  0.00    -0.273 OA
BRANCH  46  49
ATOM     49  CA  GLY A   7      21.203  15.052  15.957  0.00  0.00    +0.176 C 
BRANCH  49  50
ATOM     50  C   GLY A   7      22.528  15.479  15.355  0.00  0.00    +0.243 C 
ATOM     51  N   GLY A   8      23.184  16.498  15.811  0.00  0.00    -0.295 N 
ATOM     52  H   GLY A   8      22.768  17.057  16.583  0.00  0.00    +0.150 HD
ATOM     53  O   GLY A   7      22.921  14.826  14.376  0.00  0.00    -0.273 OA
BRANCH  51  54
ATOM     54  CA  GLY A   8      24.484  16.890  15.283  0.00  0.00    +0.176 C 
BRANCH  54  55
ATOM     55  C   GLY A   8      24.364  18.097  14.371  0.00  0.00    +0.243 C 
ATOM     56  O   GLY A   8      23.555  18.979  14.610  0.00  0.00    -0.273 OA
ATOM     57  N   PHE A   9      25.244  18.165  13.383  0.00  0.00    -0.297 N 
ATOM     58  H   PHE A   9      25.793  17.309  13.165  0.00  0.00    +0.150 HD
BRANCH  57  59
ATOM     59  CA  PHE A   9      25.497  19.360  12.577  0.00  0.00    +0.153 C 
BRANCH  59  60
ATOM     60  C   PHE A   9      25.076  19.177  11.123  0.00  0.00    +0.241 C 
ATOM     61  O   PHE A   9      25.121  18.062  10.577  0.00  0.00    -0.273 OA
ATOM     62  N   ILE A  10      24.726  20.280  10.493  0.00  0.00    -0.298 N 
ATOM     63  H   ILE A  10      24.579  21.141  11.057  0.00  0.00    +0.150 HD
BRANCH  62  64
ATOM     64  CA  ILE A  10      24.533  20.361   9.044  0.00  0.00    +0.137 C 
BRANCH  64  65
ATOM     65  CB  ILE A  10      23.065  20.492   8.601  0.00  0.00    +0.026 C 
ATOM     66  CG2 ILE A  10      22.274  19.251   8.991  0.00  0.00    +0.002 C 
BRANCH  65  67
ATOM     67  CG1 ILE A  10      22.387  21.733   9.132  0.00  0.00    +0.002 C 
ATOM     68  CD1 ILE A  10      20.998  22.058   8.545  0.00  0.00    +0.000 C 
ENDBRANCH  65  67
ENDBRANCH  64  65
BRANCH  64  69
ATOM     69  C   ILE A  10      25.353  21.574   8.532  0.00  0.00    +0.227 C 
ATOM     70  O   ILE A  10      25.611  22.537   9.229  0.00  0.00    -0.286 OA
ENDBRANCH  64  69
ENDBRANCH  62  64
ENDBRANCH  59  60
BRANCH  59  71
ATOM     71  CB  PHE A   9      26.960  19.770  12.606  0.00  0.00    +0.055 C 
BRANCH  71  72
ATOM     72  CG  PHE A   9      27.440  20.313  13.946  0.00  0.00    -0.020 A 
ATOM     73  CD2 PHE A   9      27.693  19.439  15.013  0.00  0.00    -0.004 A 
ATOM     74  CE2 PHE A   9      28.127  19.997  16.212  0.00  0.00    -0.000 A 
ATOM     75  CZ  PHE A   9      28.296  21.344  16.352  0.00  0.00    -0.000 A 
ATOM     76  CE1 PHE A   9      28.042  22.200  15.316  0.00  0.00    -0.000 A 
ATOM     77  CD1 PHE A   9      27.624  21.674  14.103  0.00  0.00    -0.004 A 
ENDBRANCH  71  72
ENDBRANCH  59  71
ENDBRANCH  57  59
ENDBRANCH  54  55
ENDBRANCH  51  54
ENDBRANCH  49  50
ENDBRANCH  46  49
ENDBRANCH  44  45
BRANCH  44  78
ATOM     78  CB  ILE A   6      18.426  17.528  18.856  0.00  0.00    +0.027 C 
ATOM     79  CG2 ILE A   6      17.873  16.119  18.617  0.00  0.00    +0.002 C 
BRANCH  78  80
ATOM     80  CG1 ILE A   6      18.370  17.937  20.372  0.00  0.00    +0.002 C 
ATOM     81  CD1 ILE A   6      17.034  18.131  20.942  0.00  0.00    +0.000 C 
ENDBRANCH  78  80
ENDBRANCH  44  78
ENDBRANCH   2  44
TORSDOF 36
REMARK  Name = ../refined-set-2016/3bva/3bva_pocket.pdb
REMARK  225 active torsions:
REMARK  status: ('A' for Active; 'I' for Inactive)
REMARK    1  A    between atoms: _1  and  _3
REMARK    2  A    between atoms: _3  and  _4
REMARK    3  A    between atoms: _3  and  _6
REMARK    4  A    between atoms: _6  and  _7
REMARK    5  A    between atoms: _7  and  _8
REMARK    6  A    between atoms: _8  and  _9
REMARK    7  A    between atoms: _18  and  _20
REMARK    8  A    between atoms: _20  and  _21
REMARK    9  A    between atoms: _20  and  _23
REMARK   10  A    between atoms: _23  and  _24
REMARK   11  A    between atoms: _27  and  _29
REMARK   12  A    between atoms: _29  and  _30
REMARK   13  A    between atoms: _29  and  _32
REMARK   14  A    between atoms: _32  and  _33
REMARK   15  A    between atoms: _38  and  _40
REMARK   16  A    between atoms: _40  and  _41
REMARK   17  A    between atoms: _40  and  _43
REMARK   18  A    between atoms: _43  and  _44
REMARK   19  A    between atoms: _47  and  _49
REMARK   20  A    between atoms: _49  and  _50
REMARK   21  A    between atoms: _52  and  _54
REMARK   22  A    between atoms: _54  and  _55
REMARK   23  A    between atoms: _58  and  _60
REMARK   24  A    between atoms: _60  and  _61
REMARK   25  A    between atoms: _60  and  _63
REMARK   26  A    between atoms: _63  and  _64
REMARK   27  A    between atoms: _67  and  _69
REMARK   28  A    between atoms: _69  and  _70
REMARK   29  A    between atoms: _69  and  _72
REMARK   30  A    between atoms: _72  and  _73
REMARK   31  A    between atoms: _76  and  _78
REMARK   32  A    between atoms: _78  and  _79
REMARK   33  A    between atoms: _78  and  _81
REMARK   34  A    between atoms: _81  and  _82
REMARK   35  A    between atoms: _85  and  _87
REMARK   36  A    between atoms: _87  and  _88
REMARK   37  A    between atoms: _87  and  _90
REMARK   38  A    between atoms: _93  and  _95
REMARK   39  A    between atoms: _95  and  _96
REMARK   40  A    between atoms: _95  and  _98
REMARK   41  A    between atoms: _98  and  _99
REMARK   42  A    between atoms: _99  and  _100
REMARK   43  A    between atoms: _100  and  _101
REMARK   44  A    between atoms: _101  and  _102
REMARK   45  A    between atoms: _106  and  _108
REMARK   46  A    between atoms: _108  and  _109
REMARK   47  A    between atoms: _108  and  _111
REMARK   48  A    between atoms: _111  and  _112
REMARK   49  A    between atoms: _112  and  _113
REMARK   50  A    between atoms: _115  and  _117
REMARK   51  A    between atoms: _117  and  _118
REMARK   52  A    between atoms: _117  and  _120
REMARK   53  A    between atoms: _120  and  _121
REMARK   54  A    between atoms: _124  and  _126
REMARK   55  A    between atoms: _126  and  _127
REMARK   56  A    between atoms: _129  and  _131
REMARK   57  A    between atoms: _131  and  _132
REMARK   58  A    between atoms: _134  and  _136
REMARK   59  A    between atoms: _136  and  _137
REMARK   60  A    between atoms: _136  and  _139
REMARK   61  A    between atoms: _139  and  _140
REMARK   62  A    between atoms: _143  and  _145
REMARK   63  A    between atoms: _145  and  _146
REMARK   64  A    between atoms: _148  and  _150
REMARK   65  A    between atoms: _150  and  _151
REMARK   66  A    between atoms: _153  and  _155
REMARK   67  A    between atoms: _155  and  _156
REMARK   68  A    between atoms: _155  and  _158
REMARK   69  A    between atoms: _158  and  _159
REMARK   70  A    between atoms: _165  and  _167
REMARK   71  A    between atoms: _167  and  _168
REMARK   72  A    between atoms: _167  and  _170
REMARK   73  A    between atoms: _170  and  _171
REMARK   74  A    between atoms: _174  and  _176
REMARK   75  A    between atoms: _176  and  _177
REMARK   76  A    between atoms: _176  and  _179
REMARK   77  A    between atoms: _182  and  _184
REMARK   78  A    between atoms: _184  and  _185
REMARK   79  A    between atoms: _184  and  _187
REMARK   80  A    between atoms: _187  and  _188
REMARK   81  A    between atoms: _191  and  _193
REMARK   82  A    between atoms: _193  and  _194
REMARK   83  A    between atoms: _193  and  _196
REMARK   84  A    between atoms: _196  and  _197
REMARK   85  A    between atoms: _201  and  _202
REMARK   86  A    between atoms: _207  and  _209
REMARK   87  A    between atoms: _209  and  _210
REMARK   88  A    between atoms: _209  and  _212
REMARK   89  A    between atoms: _215  and  _217
REMARK   90  A    between atoms: _217  and  _218
REMARK   91  A    between atoms: _217  and  _220
REMARK   92  A    between atoms: _220  and  _221
REMARK   93  A    between atoms: _226  and  _228
REMARK   94  A    between atoms: _228  and  _229
REMARK   95  A    between atoms: _228  and  _231
REMARK   96  A    between atoms: _231  and  _232
REMARK   97  A    between atoms: _235  and  _237
REMARK   98  A    between atoms: _237  and  _238
REMARK   99  A    between atoms: _240  and  _242
REMARK  100  A    between atoms: _242  and  _243
REMARK  101  A    between atoms: _242  and  _245
REMARK  102  A    between atoms: _245  and  _246
REMARK  103  A    between atoms: _246  and  _247
REMARK  104  A    between atoms: _247  and  _248
REMARK  105  A    between atoms: _257  and  _259
REMARK  106  A    between atoms: _259  and  _260
REMARK  107  A    between atoms: _259  and  _262
REMARK  108  A    between atoms: _262  and  _263
REMARK  109  A    between atoms: _268  and  _270
REMARK  110  A    between atoms: _270  and  _271
REMARK  111  A    between atoms: _270  and  _273
REMARK  112  A    between atoms: _273  and  _274
REMARK  113  A    between atoms: _274  and  _275
REMARK  114  A    between atoms: _275  and  _276
REMARK  115  A    between atoms: _285  and  _287
REMARK  116  A    between atoms: _287  and  _288
REMARK  117  A    between atoms: _287  and  _290
REMARK  118  A    between atoms: _290  and  _291
REMARK  119  A    between atoms: _294  and  _296
REMARK  120  A    between atoms: _296  and  _297
REMARK  121  A    between atoms: _296  and  _299
REMARK  122  A    between atoms: _299  and  _300
REMARK  123  A    between atoms: _303  and  _305
REMARK  124  A    between atoms: _305  and  _306
REMARK  125  A    between atoms: _305  and  _308
REMARK  126  A    between atoms: _308  and  _309
REMARK  127  A    between atoms: _314  and  _316
REMARK  128  A    between atoms: _316  and  _317
REMARK  129  A    between atoms: _316  and  _319
REMARK  130  A    between atoms: _319  and  _320
REMARK  131  A    between atoms: _323  and  _325
REMARK  132  A    between atoms: _325  and  _326
REMARK  133  A    between atoms: _328  and  _330
REMARK  134  A    between atoms: _330  and  _331
REMARK  135  A    between atoms: _334  and  _336
REMARK  136  A    between atoms: _336  and  _337
REMARK  137  A    between atoms: _336  and  _339
REMARK  138  A    between atoms: _339  and  _340
REMARK  139  A    between atoms: _343  and  _345
REMARK  140  A    between atoms: _345  and  _346
REMARK  141  A    between atoms: _345  and  _348
REMARK  142  A    between atoms: _348  and  _349
REMARK  143  A    between atoms: _352  and  _354
REMARK  144  A    between atoms: _354  and  _355
REMARK  145  A    between atoms: _354  and  _357
REMARK  146  A    between atoms: _357  and  _358
REMARK  147  A    between atoms: _361  and  _363
REMARK  148  A    between atoms: _363  and  _364
REMARK  149  A    between atoms: _363  and  _366
REMARK  150  A    between atoms: _369  and  _371
REMARK  151  A    between atoms: _371  and  _372
REMARK  152  A    between atoms: _371  and  _374
REMARK  153  A    between atoms: _374  and  _375
REMARK  154  A    between atoms: _375  and  _376
REMARK  155  A    between atoms: _376  and  _377
REMARK  156  A    between atoms: _377  and  _378
REMARK  157  A    between atoms: _382  and  _384
REMARK  158  A    between atoms: _384  and  _385
REMARK  159  A    between atoms: _384  and  _387
REMARK  160  A    between atoms: _387  and  _388
REMARK  161  A    between atoms: _388  and  _389
REMARK  162  A    between atoms: _391  and  _393
REMARK  163  A    between atoms: _393  and  _394
REMARK  164  A    between atoms: _393  and  _396
REMARK  165  A    between atoms: _396  and  _397
REMARK  166  A    between atoms: _400  and  _402
REMARK  167  A    between atoms: _402  and  _403
REMARK  168  A    between atoms: _405  and  _407
REMARK  169  A    between atoms: _407  and  _408
REMARK  170  A    between atoms: _410  and  _412
REMARK  171  A    between atoms: _412  and  _413
REMARK  172  A    between atoms: _412  and  _415
REMARK  173  A    between atoms: _415  and  _416
REMARK  174  A    between atoms: _419  and  _421
REMARK  175  A    between atoms: _421  and  _422
REMARK  176  A    between atoms: _424  and  _426
REMARK  177  A    between atoms: _426  and  _427
REMARK  178  A    between atoms: _429  and  _431
REMARK  179  A    between atoms: _431  and  _432
REMARK  180  A    between atoms: _431  and  _434
REMARK  181  A    between atoms: _434  and  _435
REMARK  182  A    between atoms: _441  and  _443
REMARK  183  A    between atoms: _443  and  _444
REMARK  184  A    between atoms: _443  and  _446
REMARK  185  A    between atoms: _446  and  _447
REMARK  186  A    between atoms: _450  and  _452
REMARK  187  A    between atoms: _452  and  _453
REMARK  188  A    between atoms: _452  and  _455
REMARK  189  A    between atoms: _458  and  _460
REMARK  190  A    between atoms: _460  and  _461
REMARK  191  A    between atoms: _460  and  _463
REMARK  192  A    between atoms: _463  and  _464
REMARK  193  A    between atoms: _468  and  _469
REMARK  194  A    between atoms: _474  and  _476
REMARK  195  A    between atoms: _476  and  _477
REMARK  196  A    between atoms: _476  and  _479
REMARK  197  A    between atoms: _479  and  _480
REMARK  198  A    between atoms: _484  and  _485
REMARK  199  A    between atoms: _490  and  _492
REMARK  200  A    between atoms: _492  and  _493
REMARK  201  A    between atoms: _492  and  _495
REMARK  202  A    between atoms: _498  and  _500
REMARK  203  A    between atoms: _500  and  _501
REMARK  204  A    between atoms: _500  and  _503
REMARK  205  A    between atoms: _503  and  _504
REMARK  206  A    between atoms: _509  and  _511
REMARK  207  A    between atoms: _511  and  _512
REMARK  208  A    between atoms: _511  and  _514
REMARK  209  A    between atoms: _514  and  _515
REMARK  210  A    between atoms: _518  and  _520
REMARK  211  A    between atoms: _520  and  _521
REMARK  212  A    between atoms: _520  and  _523
REMARK  213  A    between atoms: _523  and  _524
REMARK  214  A    between atoms: _527  and  _529
REMARK  215  A    between atoms: _529  and  _530
REMARK  216  A    between atoms: _532  and  _534
REMARK  217  A    between atoms: _534  and  _535
REMARK  218  A    between atoms: _534  and  _537
REMARK  219  A    between atoms: _537  and  _538
REMARK  220  A    between atoms: _538  and  _539
REMARK  221  A    between atoms: _539  and  _540
REMARK  222  A    between atoms: _549  and  _551
REMARK  223  A    between atoms: _551  and  _552
REMARK  224  A    between atoms: _551  and  _554
REMARK  225  A    between atoms: _554  and  _555
REMARK                            x       y       z     vdW  Elec       q    Type
REMARK                         _______ _______ _______ _____ _____    ______ ____
ROOT
ATOM      1  CA  VAL A   1      24.715  25.672   5.341  0.00  0.00    +0.133 C 
ENDROOT
BRANCH   1   2
ATOM      2  CB  VAL A   1      23.787  26.293   6.415  0.00  0.00    +0.023 C 
ATOM      3  CG2 VAL A   1      24.550  27.028   7.459  0.00  0.00    +0.002 C 
ATOM      4  CG1 VAL A   1      22.908  25.199   7.026  0.00  0.00    +0.002 C 
ENDBRANCH   1   2
BRANCH   1   5
ATOM      5  N   VAL A   1      25.604  24.689   5.927  0.00  0.00    -0.239 NA
ATOM      6  H   VAL A   1      26.421  25.029   6.473  0.00  0.00    +0.142 HD
ENDBRANCH   1   5
BRANCH   1   7
ATOM      7  C   VAL A   1      25.542  26.765   4.658  0.00  0.00    +0.224 C 
ATOM      8  O   VAL A   1      26.737  26.880   4.847  0.00  0.00    -0.287 OA
ENDBRANCH   1   7
TORSDOF 3
REMARK  Name = ../refined-set-2016/3bva/3bva_pocket.pdb
REMARK  225 active torsions:
REMARK  status: ('A' for Active; 'I' for Inactive)
REMARK    1  A    between atoms: _1  and  _3
REMARK    2  A    between atoms: _3  and  _4
REMARK    3  A    between atoms: _3  and  _6
REMARK    4  A    between atoms: _6  and  _7
REMARK    5  A    between atoms: _7  and  _8
REMARK    6  A    between atoms: _8  and  _9
REMARK    7  A    between atoms: _18  and  _20
REMARK    8  A    between atoms: _20  and  _21
REMARK    9  A    between atoms: _20  and  _23
REMARK   10  A    between atoms: _23  and  _24
REMARK   11  A    between atoms: _27  and  _29
REMARK   12  A    between atoms: _29  and  _30
REMARK   13  A    between atoms: _29  and  _32
REMARK   14  A    between atoms: _32  and  _33
REMARK   15  A    between atoms: _38  and  _40
REMARK   16  A    between atoms: _40  and  _41
REMARK   17  A    between atoms: _40  and  _43
REMARK   18  A    between atoms: _43  and  _44
REMARK   19  A    between atoms: _47  and  _49
REMARK   20  A    between atoms: _49  and  _50
REMARK   21  A    between atoms: _52  and  _54
REMARK   22  A    between atoms: _54  and  _55
REMARK   23  A    between atoms: _58  and  _60
REMARK   24  A    between atoms: _60  and  _61
REMARK   25  A    between atoms: _60  and  _63
REMARK   26  A    between atoms: _63  and  _64
REMARK   27  A    between atoms: _67  and  _69
REMARK   28  A    between atoms: _69  and  _70
REMARK   29  A    between atoms: _69  and  _72
REMARK   30  A    between atoms: _72  and  _73
REMARK   31  A    between atoms: _76  and  _78
REMARK   32  A    between atoms: _78  and  _79
REMARK   33  A    between atoms: _78  and  _81
REMARK   34  A    between atoms: _81  and  _82
REMARK   35  A    between atoms: _85  and  _87
REMARK   36  A    between atoms: _87  and  _88
REMARK   37  A    between atoms: _87  and  _90
REMARK   38  A    between atoms: _93  and  _95
REMARK   39  A    between atoms: _95  and  _96
REMARK   40  A    between atoms: _95  and  _98
REMARK   41  A    between atoms: _98  and  _99
REMARK   42  A    between atoms: _99  and  _100
REMARK   43  A    between atoms: _100  and  _101
REMARK   44  A    between atoms: _101  and  _102
REMARK   45  A    between atoms: _106  and  _108
REMARK   46  A    between atoms: _108  and  _109
REMARK   47  A    between atoms: _108  and  _111
REMARK   48  A    between atoms: _111  and  _112
REMARK   49  A    between atoms: _112  and  _113
REMARK   50  A    between atoms: _115  and  _117
REMARK   51  A    between atoms: _117  and  _118
REMARK   52  A    between atoms: _117  and  _120
REMARK   53  A    between atoms: _120  and  _121
REMARK   54  A    between atoms: _124  and  _126
REMARK   55  A    between atoms: _126  and  _127
REMARK   56  A    between atoms: _129  and  _131
REMARK   57  A    between atoms: _131  and  _132
REMARK   58  A    between atoms: _134  and  _136
REMARK   59  A    between atoms: _136  and  _137
REMARK   60  A    between atoms: _136  and  _139
REMARK   61  A    between atoms: _139  and  _140
REMARK   62  A    between atoms: _143  and  _145
REMARK   63  A    between atoms: _145  and  _146
REMARK   64  A    between atoms: _148  and  _150
REMARK   65  A    between atoms: _150  and  _151
REMARK   66  A    between atoms: _153  and  _155
REMARK   67  A    between atoms: _155  and  _156
REMARK   68  A    between atoms: _155  and  _158
REMARK   69  A    between atoms: _158  and  _159
REMARK   70  A    between atoms: _165  and  _167
REMARK   71  A    between atoms: _167  and  _168
REMARK   72  A    between atoms: _167  and  _170
REMARK   73  A    between atoms: _170  and  _171
REMARK   74  A    between atoms: _174  and  _176
REMARK   75  A    between atoms: _176  and  _177
REMARK   76  A    between atoms: _176  and  _179
REMARK   77  A    between atoms: _182  and  _184
REMARK   78  A    between atoms: _184  and  _185
REMARK   79  A    between atoms: _184  and  _187
REMARK   80  A    between atoms: _187  and  _188
REMARK   81  A    between atoms: _191  and  _193
REMARK   82  A    between atoms: _193  and  _194
REMARK   83  A    between atoms: _193  and  _196
REMARK   84  A    between atoms: _196  and  _197
REMARK   85  A    between atoms: _201  and  _202
REMARK   86  A    between atoms: _207  and  _209
REMARK   87  A    between atoms: _209  and  _210
REMARK   88  A    between atoms: _209  and  _212
REMARK   89  A    between atoms: _215  and  _217
REMARK   90  A    between atoms: _217  and  _218
REMARK   91  A    between atoms: _217  and  _220
REMARK   92  A    between atoms: _220  and  _221
REMARK   93  A    between atoms: _226  and  _228
REMARK   94  A    between atoms: _228  and  _229
REMARK   95  A    between atoms: _228  and  _231
REMARK   96  A    between atoms: _231  and  _232
REMARK   97  A    between atoms: _235  and  _237
REMARK   98  A    between atoms: _237  and  _238
REMARK   99  A    between atoms: _240  and  _242
REMARK  100  A    between atoms: _242  and  _243
REMARK  101  A    between atoms: _242  and  _245
REMARK  102  A    between atoms: _245  and  _246
REMARK  103  A    between atoms: _246  and  _247
REMARK  104  A    between atoms: _247  and  _248
REMARK  105  A    between atoms: _257  and  _259
REMARK  106  A    between atoms: _259  and  _260
REMARK  107  A    between atoms: _259  and  _262
REMARK  108  A    between atoms: _262  and  _263
REMARK  109  A    between atoms: _268  and  _270
REMARK  110  A    between atoms: _270  and  _271
REMARK  111  A    between atoms: _270  and  _273
REMARK  112  A    between atoms: _273  and  _274
REMARK  113  A    between atoms: _274  and  _275
REMARK  114  A    between atoms: _275  and  _276
REMARK  115  A    between atoms: _285  and  _287
REMARK  116  A    between atoms: _287  and  _288
REMARK  117  A    between atoms: _287  and  _290
REMARK  118  A    between atoms: _290  and  _291
REMARK  119  A    between atoms: _294  and  _296
REMARK  120  A    between atoms: _296  and  _297
REMARK  121  A    between atoms: _296  and  _299
REMARK  122  A    between atoms: _299  and  _300
REMARK  123  A    between atoms: _303  and  _305
REMARK  124  A    between atoms: _305  and  _306
REMARK  125  A    between atoms: _305  and  _308
REMARK  126  A    between atoms: _308  and  _309
REMARK  127  A    between atoms: _314  and  _316
REMARK  128  A    between atoms: _316  and  _317
REMARK  129  A    between atoms: _316  and  _319
REMARK  130  A    between atoms: _319  and  _320
REMARK  131  A    between atoms: _323  and  _325
REMARK  132  A    between atoms: _325  and  _326
REMARK  133  A    between atoms: _328  and  _330
REMARK  134  A    between atoms: _330  and  _331
REMARK  135  A    between atoms: _334  and  _336
REMARK  136  A    between atoms: _336  and  _337
REMARK  137  A    between atoms: _336  and  _339
REMARK  138  A    between atoms: _339  and  _340
REMARK  139  A    between atoms: _343  and  _345
REMARK  140  A    between atoms: _345  and  _346
REMARK  141  A    between atoms: _345  and  _348
REMARK  142  A    between atoms: _348  and  _349
REMARK  143  A    between atoms: _352  and  _354
REMARK  144  A    between atoms: _354  and  _355
REMARK  145  A    between atoms: _354  and  _357
REMARK  146  A    between atoms: _357  and  _358
REMARK  147  A    between atoms: _361  and  _363
REMARK  148  A    between atoms: _363  and  _364
REMARK  149  A    between atoms: _363  and  _366
REMARK  150  A    between atoms: _369  and  _371
REMARK  151  A    between atoms: _371  and  _372
REMARK  152  A    between atoms: _371  and  _374
REMARK  153  A    between atoms: _374  and  _375
REMARK  154  A    between atoms: _375  and  _376
REMARK  155  A    between atoms: _376  and  _377
REMARK  156  A    between atoms: _377  and  _378
REMARK  157  A    between atoms: _382  and  _384
REMARK  158  A    between atoms: _384  and  _385
REMARK  159  A    between atoms: _384  and  _387
REMARK  160  A    between atoms: _387  and  _388
REMARK  161  A    between atoms: _388  and  _389
REMARK  162  A    between atoms: _391  and  _393
REMARK  163  A    between atoms: _393  and  _394
REMARK  164  A    between atoms: _393  and  _396
REMARK  165  A    between atoms: _396  and  _397
REMARK  166  A    between atoms: _400  and  _402
REMARK  167  A    between atoms: _402  and  _403
REMARK  168  A    between atoms: _405  and  _407
REMARK  169  A    between atoms: _407  and  _408
REMARK  170  A    between atoms: _410  and  _412
REMARK  171  A    between atoms: _412  and  _413
REMARK  172  A    between atoms: _412  and  _415
REMARK  173  A    between atoms: _415  and  _416
REMARK  174  A    between atoms: _419  and  _421
REMARK  175  A    between atoms: _421  and  _422
REMARK  176  A    between atoms: _424  and  _426
REMARK  177  A    between atoms: _426  and  _427
REMARK  178  A    between atoms: _429  and  _431
REMARK  179  A    between atoms: _431  and  _432
REMARK  180  A    between atoms: _431  and  _434
REMARK  181  A    between atoms: _434  and  _435
REMARK  182  A    between atoms: _441  and  _443
REMARK  183  A    between atoms: _443  and  _444
REMARK  184  A    between atoms: _443  and  _446
REMARK  185  A    between atoms: _446  and  _447
REMARK  186  A    between atoms: _450  and  _452
REMARK  187  A    between atoms: _452  and  _453
REMARK  188  A    between atoms: _452  and  _455
REMARK  189  A    between atoms: _458  and  _460
REMARK  190  A    between atoms: _460  and  _461
REMARK  191  A    between atoms: _460  and  _463
REMARK  192  A    between atoms: _463  and  _464
REMARK  193  A    between atoms: _468  and  _469
REMARK  194  A    between atoms: _474  and  _476
REMARK  195  A    between atoms: _476  and  _477
REMARK  196  A    between atoms: _476  and  _479
REMARK  197  A    between atoms: _479  and  _480
REMARK  198  A    between atoms: _484  and  _485
REMARK  199  A    between atoms: _490  and  _492
REMARK  200  A    between atoms: _492  and  _493
REMARK  201  A    between atoms: _492  and  _495
REMARK  202  A    between atoms: _498  and  _500
REMARK  203  A    between atoms: _500  and  _501
REMARK  204  A    between atoms: _500  and  _503
REMARK  205  A    between atoms: _503  and  _504
REMARK  206  A    between atoms: _509  and  _511
REMARK  207  A    between atoms: _511  and  _512
REMARK  208  A    between atoms: _511  and  _514
REMARK  209  A    between atoms: _514  and  _515
REMARK  210  A    between atoms: _518  and  _520
REMARK  211  A    between atoms: _520  and  _521
REMARK  212  A    between atoms: _520  and  _523
REMARK  213  A    between atoms: _523  and  _524
REMARK  214  A    between atoms: _527  and  _529
REMARK  215  A    between atoms: _529  and  _530
REMARK  216  A    between atoms: _532  and  _534
REMARK  217  A    between atoms: _534  and  _535
REMARK  218  A    between atoms: _534  and  _537
REMARK  219  A    between atoms: _537  and  _538
REMARK  220  A    between atoms: _538  and  _539
REMARK  221  A    between atoms: _539  and  _540
REMARK  222  A    between atoms: _549  and  _551
REMARK  223  A    between atoms: _551  and  _552
REMARK  224  A    between atoms: _551  and  _554
REMARK  225  A    between atoms: _554  and  _555
REMARK                            x       y       z     vdW  Elec       q    Type
REMARK                         _______ _______ _______ _____ _____    ______ ____
ROOT
ATOM      1  CA  LEU A   1      21.388  30.471   6.567  0.00  0.00    +0.133 C 
ENDROOT
BRANCH   1   2
ATOM      2  N   LEU A   1      20.663  31.672   6.929  0.00  0.00    -0.239 NA
ATOM      3  H   LEU A   1      19.986  31.632   7.718  0.00  0.00    +0.142 HD
ENDBRANCH   1   2
BRANCH   1   4
ATOM      4  C   LEU A   1      20.486  29.593   5.696  0.00  0.00    +0.224 C 
ATOM      5  O   LEU A   1      19.280  29.483   5.970  0.00  0.00    -0.287 OA
ENDBRANCH   1   4
BRANCH   1   6
ATOM      6  CB  LEU A   1      21.773  29.696   7.827  0.00  0.00    +0.025 C 
BRANCH   6   7
ATOM      7  CG  LEU A   1      22.488  30.514   8.911  0.00  0.00    +0.002 C 
ATOM      8  CD2 LEU A   1      22.823  29.642  10.102  0.00  0.00    +0.000 C 
ATOM      9  CD1 LEU A   1      23.704  31.231   8.340  0.00  0.00    +0.000 C 
ENDBRANCH   6   7
ENDBRANCH   1   6
TORSDOF 4
REMARK  Name = ../refined-set-2016/3bva/3bva_pocket.pdb
REMARK  225 active torsions:
REMARK  status: ('A' for Active; 'I' for Inactive)
REMARK    1  A    between atoms: _1  and  _3
REMARK    2  A    between atoms: _3  and  _4
REMARK    3  A    between atoms: _3  and  _6
REMARK    4  A    between atoms: _6  and  _7
REMARK    5  A    between atoms: _7  and  _8
REMARK    6  A    between atoms: _8  and  _9
REMARK    7  A    between atoms: _18  and  _20
REMARK    8  A    between atoms: _20  and  _21
REMARK    9  A    between atoms: _20  and  _23
REMARK   10  A    between atoms: _23  and  _24
REMARK   11  A    between atoms: _27  and  _29
REMARK   12  A    between atoms: _29  and  _30
REMARK   13  A    between atoms: _29  and  _32
REMARK   14  A    between atoms: _32  and  _33
REMARK   15  A    between atoms: _38  and  _40
REMARK   16  A    between atoms: _40  and  _41
REMARK   17  A    between atoms: _40  and  _43
REMARK   18  A    between atoms: _43  and  _44
REMARK   19  A    between atoms: _47  and  _49
REMARK   20  A    between atoms: _49  and  _50
REMARK   21  A    between atoms: _52  and  _54
REMARK   22  A    between atoms: _54  and  _55
REMARK   23  A    between atoms: _58  and  _60
REMARK   24  A    between atoms: _60  and  _61
REMARK   25  A    between atoms: _60  and  _63
REMARK   26  A    between atoms: _63  and  _64
REMARK   27  A    between atoms: _67  and  _69
REMARK   28  A    between atoms: _69  and  _70
REMARK   29  A    between atoms: _69  and  _72
REMARK   30  A    between atoms: _72  and  _73
REMARK   31  A    between atoms: _76  and  _78
REMARK   32  A    between atoms: _78  and  _79
REMARK   33  A    between atoms: _78  and  _81
REMARK   34  A    between atoms: _81  and  _82
REMARK   35  A    between atoms: _85  and  _87
REMARK   36  A    between atoms: _87  and  _88
REMARK   37  A    between atoms: _87  and  _90
REMARK   38  A    between atoms: _93  and  _95
REMARK   39  A    between atoms: _95  and  _96
REMARK   40  A    between atoms: _95  and  _98
REMARK   41  A    between atoms: _98  and  _99
REMARK   42  A    between atoms: _99  and  _100
REMARK   43  A    between atoms: _100  and  _101
REMARK   44  A    between atoms: _101  and  _102
REMARK   45  A    between atoms: _106  and  _108
REMARK   46  A    between atoms: _108  and  _109
REMARK   47  A    between atoms: _108  and  _111
REMARK   48  A    between atoms: _111  and  _112
REMARK   49  A    between atoms: _112  and  _113
REMARK   50  A    between atoms: _115  and  _117
REMARK   51  A    between atoms: _117  and  _118
REMARK   52  A    between atoms: _117  and  _120
REMARK   53  A    between atoms: _120  and  _121
REMARK   54  A    between atoms: _124  and  _126
REMARK   55  A    between atoms: _126  and  _127
REMARK   56  A    between atoms: _129  and  _131
REMARK   57  A    between atoms: _131  and  _132
REMARK   58  A    between atoms: _134  and  _136
REMARK   59  A    between atoms: _136  and  _137
REMARK   60  A    between atoms: _136  and  _139
REMARK   61  A    between atoms: _139  and  _140
REMARK   62  A    between atoms: _143  and  _145
REMARK   63  A    between atoms: _145  and  _146
REMARK   64  A    between atoms: _148  and  _150
REMARK   65  A    between atoms: _150  and  _151
REMARK   66  A    between atoms: _153  and  _155
REMARK   67  A    between atoms: _155  and  _156
REMARK   68  A    between atoms: _155  and  _158
REMARK   69  A    between atoms: _158  and  _159
REMARK   70  A    between atoms: _165  and  _167
REMARK   71  A    between atoms: _167  and  _168
REMARK   72  A    between atoms: _167  and  _170
REMARK   73  A    between atoms: _170  and  _171
REMARK   74  A    between atoms: _174  and  _176
REMARK   75  A    between atoms: _176  and  _177
REMARK   76  A    between atoms: _176  and  _179
REMARK   77  A    between atoms: _182  and  _184
REMARK   78  A    between atoms: _184  and  _185
REMARK   79  A    between atoms: _184  and  _187
REMARK   80  A    between atoms: _187  and  _188
REMARK   81  A    between atoms: _191  and  _193
REMARK   82  A    between atoms: _193  and  _194
REMARK   83  A    between atoms: _193  and  _196
REMARK   84  A    between atoms: _196  and  _197
REMARK   85  A    between atoms: _201  and  _202
REMARK   86  A    between atoms: _207  and  _209
REMARK   87  A    between atoms: _209  and  _210
REMARK   88  A    between atoms: _209  and  _212
REMARK   89  A    between atoms: _215  and  _217
REMARK   90  A    between atoms: _217  and  _218
REMARK   91  A    between atoms: _217  and  _220
REMARK   92  A    between atoms: _220  and  _221
REMARK   93  A    between atoms: _226  and  _228
REMARK   94  A    between atoms: _228  and  _229
REMARK   95  A    between atoms: _228  and  _231
REMARK   96  A    between atoms: _231  and  _232
REMARK   97  A    between atoms: _235  and  _237
REMARK   98  A    between atoms: _237  and  _238
REMARK   99  A    between atoms: _240  and  _242
REMARK  100  A    between atoms: _242  and  _243
REMARK  101  A    between atoms: _242  and  _245
REMARK  102  A    between atoms: _245  and  _246
REMARK  103  A    between atoms: _246  and  _247
REMARK  104  A    between atoms: _247  and  _248
REMARK  105  A    between atoms: _257  and  _259
REMARK  106  A    between atoms: _259  and  _260
REMARK  107  A    between atoms: _259  and  _262
REMARK  108  A    between atoms: _262  and  _263
REMARK  109  A    between atoms: _268  and  _270
REMARK  110  A    between atoms: _270  and  _271
REMARK  111  A    between atoms: _270  and  _273
REMARK  112  A    between atoms: _273  and  _274
REMARK  113  A    between atoms: _274  and  _275
REMARK  114  A    between atoms: _275  and  _276
REMARK  115  A    between atoms: _285  and  _287
REMARK  116  A    between atoms: _287  and  _288
REMARK  117  A    between atoms: _287  and  _290
REMARK  118  A    between atoms: _290  and  _291
REMARK  119  A    between atoms: _294  and  _296
REMARK  120  A    between atoms: _296  and  _297
REMARK  121  A    between atoms: _296  and  _299
REMARK  122  A    between atoms: _299  and  _300
REMARK  123  A    between atoms: _303  and  _305
REMARK  124  A    between atoms: _305  and  _306
REMARK  125  A    between atoms: _305  and  _308
REMARK  126  A    between atoms: _308  and  _309
REMARK  127  A    between atoms: _314  and  _316
REMARK  128  A    between atoms: _316  and  _317
REMARK  129  A    between atoms: _316  and  _319
REMARK  130  A    between atoms: _319  and  _320
REMARK  131  A    between atoms: _323  and  _325
REMARK  132  A    between atoms: _325  and  _326
REMARK  133  A    between atoms: _328  and  _330
REMARK  134  A    between atoms: _330  and  _331
REMARK  135  A    between atoms: _334  and  _336
REMARK  136  A    between atoms: _336  and  _337
REMARK  137  A    between atoms: _336  and  _339
REMARK  138  A    between atoms: _339  and  _340
REMARK  139  A    between atoms: _343  and  _345
REMARK  140  A    between atoms: _345  and  _346
REMARK  141  A    between atoms: _345  and  _348
REMARK  142  A    between atoms: _348  and  _349
REMARK  143  A    between atoms: _352  and  _354
REMARK  144  A    between atoms: _354  and  _355
REMARK  145  A    between atoms: _354  and  _357
REMARK  146  A    between atoms: _357  and  _358
REMARK  147  A    between atoms: _361  and  _363
REMARK  148  A    between atoms: _363  and  _364
REMARK  149  A    between atoms: _363  and  _366
REMARK  150  A    between atoms: _369  and  _371
REMARK  151  A    between atoms: _371  and  _372
REMARK  152  A    between atoms: _371  and  _374
REMARK  153  A    between atoms: _374  and  _375
REMARK  154  A    between atoms: _375  and  _376
REMARK  155  A    between atoms: _376  and  _377
REMARK  156  A    between atoms: _377  and  _378
REMARK  157  A    between atoms: _382  and  _384
REMARK  158  A    between atoms: _384  and  _385
REMARK  159  A    between atoms: _384  and  _387
REMARK  160  A    between atoms: _387  and  _388
REMARK  161  A    between atoms: _388  and  _389
REMARK  162  A    between atoms: _391  and  _393
REMARK  163  A    between atoms: _393  and  _394
REMARK  164  A    between atoms: _393  and  _396
REMARK  165  A    between atoms: _396  and  _397
REMARK  166  A    between atoms: _400  and  _402
REMARK  167  A    between atoms: _402  and  _403
REMARK  168  A    between atoms: _405  and  _407
REMARK  169  A    between atoms: _407  and  _408
REMARK  170  A    between atoms: _410  and  _412
REMARK  171  A    between atoms: _412  and  _413
REMARK  172  A    between atoms: _412  and  _415
REMARK  173  A    between atoms: _415  and  _416
REMARK  174  A    between atoms: _419  and  _421
REMARK  175  A    between atoms: _421  and  _422
REMARK  176  A    between atoms: _424  and  _426
REMARK  177  A    between atoms: _426  and  _427
REMARK  178  A    between atoms: _429  and  _431
REMARK  179  A    between atoms: _431  and  _432
REMARK  180  A    between atoms: _431  and  _434
REMARK  181  A    between atoms: _434  and  _435
REMARK  182  A    between atoms: _441  and  _443
REMARK  183  A    between atoms: _443  and  _444
REMARK  184  A    between atoms: _443  and  _446
REMARK  185  A    between atoms: _446  and  _447
REMARK  186  A    between atoms: _450  and  _452
REMARK  187  A    between atoms: _452  and  _453
REMARK  188  A    between atoms: _452  and  _455
REMARK  189  A    between atoms: _458  and  _460
REMARK  190  A    between atoms: _460  and  _461
REMARK  191  A    between atoms: _460  and  _463
REMARK  192  A    between atoms: _463  and  _464
REMARK  193  A    between atoms: _468  and  _469
REMARK  194  A    between atoms: _474  and  _476
REMARK  195  A    between atoms: _476  and  _477
REMARK  196  A    between atoms: _476  and  _479
REMARK  197  A    between atoms: _479  and  _480
REMARK  198  A    between atoms: _484  and  _485
REMARK  199  A    between atoms: _490  and  _492
REMARK  200  A    between atoms: _492  and  _493
REMARK  201  A    between atoms: _492  and  _495
REMARK  202  A    between atoms: _498  and  _500
REMARK  203  A    between atoms: _500  and  _501
REMARK  204  A    between atoms: _500  and  _503
REMARK  205  A    between atoms: _503  and  _504
REMARK  206  A    between atoms: _509  and  _511
REMARK  207  A    between atoms: _511  and  _512
REMARK  208  A    between atoms: _511  and  _514
REMARK  209  A    between atoms: _514  and  _515
REMARK  210  A    between atoms: _518  and  _520
REMARK  211  A    between atoms: _520  and  _521
REMARK  212  A    between atoms: _520  and  _523
REMARK  213  A    between atoms: _523  and  _524
REMARK  214  A    between atoms: _527  and  _529
REMARK  215  A    between atoms: _529  and  _530
REMARK  216  A    between atoms: _532  and  _534
REMARK  217  A    between atoms: _534  and  _535
REMARK  218  A    between atoms: _534  and  _537
REMARK  219  A    between atoms: _537  and  _538
REMARK  220  A    between atoms: _538  and  _539
REMARK  221  A    between atoms: _539  and  _540
REMARK  222  A    between atoms: _549  and  _551
REMARK  223  A    between atoms: _551  and  _552
REMARK  224  A    between atoms: _551  and  _554
REMARK  225  A    between atoms: _554  and  _555
REMARK                            x       y       z     vdW  Elec       q    Type
REMARK                         _______ _______ _______ _____ _____    ______ ____
ROOT
ATOM      1  CA  VAL A   3      11.918  22.787   8.897  0.00  0.00    +0.149 C 
ENDROOT
BRANCH   1   2
ATOM      2  C   VAL A   3      12.534  24.183   8.745  0.00  0.00    +0.241 C 
ATOM      3  O   VAL A   3      13.657  24.410   9.231  0.00  0.00    -0.273 OA
ATOM      4  N   ASN A   4      11.821  25.105   8.145  0.00  0.00    -0.297 N 
ATOM      5  H   ASN A   4      10.925  24.837   7.691  0.00  0.00    +0.150 HD
BRANCH   4   6
ATOM      6  CA  ASN A   4      12.257  26.512   8.097  0.00  0.00    +0.158 C 
BRANCH   6   7
ATOM      7  C   ASN A   4      12.146  27.085   9.527  0.00  0.00    +0.241 C 
ATOM      8  O   ASN A   4      11.131  26.889  10.171  0.00  0.00    -0.273 OA
ATOM      9  N   ILE A   5      13.210  27.745   9.951  0.00  0.00    -0.298 N 
ATOM     10  H   ILE A   5      13.983  27.922   9.278  0.00  0.00    +0.150 HD
BRANCH   9  11
ATOM     11  CA  ILE A   5      13.353  28.236  11.312  0.00  0.00    +0.137 C 
BRANCH  11  12
ATOM     12  CB  ILE A   5      14.513  27.481  12.000  0.00  0.00    +0.026 C 
ATOM     13  CG2 ILE A   5      14.945  28.150  13.297  0.00  0.00    +0.002 C 
BRANCH  12  14
ATOM     14  CG1 ILE A   5      14.176  26.011  12.197  0.00  0.00    +0.002 C 
ATOM     15  CD1 ILE A   5      15.363  25.142  12.456  0.00  0.00    +0.000 C 
ENDBRANCH  12  14
ENDBRANCH  11  12
BRANCH  11  16
ATOM     16  C   ILE A   5      13.647  29.719  11.316  0.00  0.00    +0.227 C 
ATOM     17  O   ILE A   5      14.589  30.164  10.688  0.00  0.00    -0.286 OA
ENDBRANCH  11  16
ENDBRANCH   9  11
ENDBRANCH   6   7
BRANCH   6  18
ATOM     18  CB  ASN A   4      11.431  27.337   7.151  0.00  0.00    +0.114 C 
BRANCH  18  19
ATOM     19  CG  ASN A   4      11.507  26.898   5.706  0.00  0.00    +0.222 C 
ATOM     20  OD1 ASN A   4      12.572  26.615   5.230  0.00  0.00    -0.275 OA
ATOM     21  ND2 ASN A   4      10.342  26.834   5.043  0.00  0.00    -0.329 N 
ATOM     22 HD21 ASN A   4       9.456  27.095   5.521  0.00  0.00    +0.145 HD
ATOM     23 HD22 ASN A   4      10.325  26.523   4.051  0.00  0.00    +0.145 HD
ENDBRANCH  18  19
ENDBRANCH   6  18
ENDBRANCH   4   6
ENDBRANCH   1   2
BRANCH   1  25
ATOM     24  C   PRO A   2      12.868  20.626   8.178  0.00  0.00    +0.241 C 
ATOM     25  N   VAL A   3      12.967  21.800   8.734  0.00  0.00    -0.297 N 
ATOM     26  H   VAL A   3      13.905  22.058   9.103  0.00  0.00    +0.150 HD
ATOM     27  O   PRO A   2      11.784  20.283   7.702  0.00  0.00    -0.273 OA
BRANCH  24  33
ATOM     28  C   THR A   1      15.835  21.139   7.343  0.00  0.00    +0.244 C 
ATOM     29  N   PRO A   2      15.363  20.356   8.320  0.00  0.00    -0.272 N 
ATOM     30  CD  PRO A   2      16.121  19.980   9.551  0.00  0.00    +0.094 C 
ATOM     31  CG  PRO A   2      15.411  18.816  10.057  0.00  0.00    +0.024 C 
ATOM     32  CB  PRO A   2      14.050  18.829   9.491  0.00  0.00    +0.031 C 
ATOM     33  CA  PRO A   2      14.076  19.688   8.215  0.00  0.00    +0.152 C 
ATOM     34  O   THR A   1      15.149  21.315   6.309  0.00  0.00    -0.273 OA
BRANCH  28  35
ATOM     35  CA  THR A   1      17.139  21.900   7.534  0.00  0.00    +0.172 C 
BRANCH  35  36
ATOM     36  N   THR A   1      17.860  21.925   6.296  0.00  0.00    -0.236 NA
ATOM     37  H   THR A   1      17.881  22.808   5.748  0.00  0.00    +0.142 HD
ENDBRANCH  35  36
BRANCH  35  38
ATOM     38  CB  THR A   1      16.853  23.331   8.031  0.00  0.00    +0.135 C 
ATOM     39  CG2 THR A   1      16.133  24.222   7.049  0.00  0.00    +0.034 C 
BRANCH  38  40
ATOM     40  OG1 THR A   1      16.088  23.187   9.245  0.00  0.00    -0.383 OA
ATOM     41  HG1 THR A   1      15.876  24.083   9.608  0.00  0.00    +0.210 HD
ENDBRANCH  38  40
ENDBRANCH  35  38
ENDBRANCH  28  35
ENDBRANCH  24  33
ENDBRANCH   1  25
BRANCH   1  42
ATOM     42  CB  VAL A   3      11.034  22.643  10.143  0.00  0.00    +0.027 C 
ATOM     43  CG2 VAL A   3      11.866  22.841  11.380  0.00  0.00    +0.002 C 
ATOM     44  CG1 VAL A   3      10.327  21.301  10.147  0.00  0.00    +0.002 C 
ENDBRANCH   1  42
TORSDOF 16
REMARK  Name = ../refined-set-2016/3bva/3bva_pocket.pdb
REMARK  225 active torsions:
REMARK  status: ('A' for Active; 'I' for Inactive)
REMARK    1  A    between atoms: _1  and  _3
REMARK    2  A    between atoms: _3  and  _4
REMARK    3  A    between atoms: _3  and  _6
REMARK    4  A    between atoms: _6  and  _7
REMARK    5  A    between atoms: _7  and  _8
REMARK    6  A    between atoms: _8  and  _9
REMARK    7  A    between atoms: _18  and  _20
REMARK    8  A    between atoms: _20  and  _21
REMARK    9  A    between atoms: _20  and  _23
REMARK   10  A    between atoms: _23  and  _24
REMARK   11  A    between atoms: _27  and  _29
REMARK   12  A    between atoms: _29  and  _30
REMARK   13  A    between atoms: _29  and  _32
REMARK   14  A    between atoms: _32  and  _33
REMARK   15  A    between atoms: _38  and  _40
REMARK   16  A    between atoms: _40  and  _41
REMARK   17  A    between atoms: _40  and  _43
REMARK   18  A    between atoms: _43  and  _44
REMARK   19  A    between atoms: _47  and  _49
REMARK   20  A    between atoms: _49  and  _50
REMARK   21  A    between atoms: _52  and  _54
REMARK   22  A    between atoms: _54  and  _55
REMARK   23  A    between atoms: _58  and  _60
REMARK   24  A    between atoms: _60  and  _61
REMARK   25  A    between atoms: _60  and  _63
REMARK   26  A    between atoms: _63  and  _64
REMARK   27  A    between atoms: _67  and  _69
REMARK   28  A    between atoms: _69  and  _70
REMARK   29  A    between atoms: _69  and  _72
REMARK   30  A    between atoms: _72  and  _73
REMARK   31  A    between atoms: _76  and  _78
REMARK   32  A    between atoms: _78  and  _79
REMARK   33  A    between atoms: _78  and  _81
REMARK   34  A    between atoms: _81  and  _82
REMARK   35  A    between atoms: _85  and  _87
REMARK   36  A    between atoms: _87  and  _88
REMARK   37  A    between atoms: _87  and  _90
REMARK   38  A    between atoms: _93  and  _95
REMARK   39  A    between atoms: _95  and  _96
REMARK   40  A    between atoms: _95  and  _98
REMARK   41  A    between atoms: _98  and  _99
REMARK   42  A    between atoms: _99  and  _100
REMARK   43  A    between atoms: _100  and  _101
REMARK   44  A    between atoms: _101  and  _102
REMARK   45  A    between atoms: _106  and  _108
REMARK   46  A    between atoms: _108  and  _109
REMARK   47  A    between atoms: _108  and  _111
REMARK   48  A    between atoms: _111  and  _112
REMARK   49  A    between atoms: _112  and  _113
REMARK   50  A    between atoms: _115  and  _117
REMARK   51  A    between atoms: _117  and  _118
REMARK   52  A    between atoms: _117  and  _120
REMARK   53  A    between atoms: _120  and  _121
REMARK   54  A    between atoms: _124  and  _126
REMARK   55  A    between atoms: _126  and  _127
REMARK   56  A    between atoms: _129  and  _131
REMARK   57  A    between atoms: _131  and  _132
REMARK   58  A    between atoms: _134  and  _136
REMARK   59  A    between atoms: _136  and  _137
REMARK   60  A    between atoms: _136  and  _139
REMARK   61  A    between atoms: _139  and  _140
REMARK   62  A    between atoms: _143  and  _145
REMARK   63  A    between atoms: _145  and  _146
REMARK   64  A    between atoms: _148  and  _150
REMARK   65  A    between atoms: _150  and  _151
REMARK   66  A    between atoms: _153  and  _155
REMARK   67  A    between atoms: _155  and  _156
REMARK   68  A    between atoms: _155  and  _158
REMARK   69  A    between atoms: _158  and  _159
REMARK   70  A    between atoms: _165  and  _167
REMARK   71  A    between atoms: _167  and  _168
REMARK   72  A    between atoms: _167  and  _170
REMARK   73  A    between atoms: _170  and  _171
REMARK   74  A    between atoms: _174  and  _176
REMARK   75  A    between atoms: _176  and  _177
REMARK   76  A    between atoms: _176  and  _179
REMARK   77  A    between atoms: _182  and  _184
REMARK   78  A    between atoms: _184  and  _185
REMARK   79  A    between atoms: _184  and  _187
REMARK   80  A    between atoms: _187  and  _188
REMARK   81  A    between atoms: _191  and  _193
REMARK   82  A    between atoms: _193  and  _194
REMARK   83  A    between atoms: _193  and  _196
REMARK   84  A    between atoms: _196  and  _197
REMARK   85  A    between atoms: _201  and  _202
REMARK   86  A    between atoms: _207  and  _209
REMARK   87  A    between atoms: _209  and  _210
REMARK   88  A    between atoms: _209  and  _212
REMARK   89  A    between atoms: _215  and  _217
REMARK   90  A    between atoms: _217  and  _218
REMARK   91  A    between atoms: _217  and  _220
REMARK   92  A    between atoms: _220  and  _221
REMARK   93  A    between atoms: _226  and  _228
REMARK   94  A    between atoms: _228  and  _229
REMARK   95  A    between atoms: _228  and  _231
REMARK   96  A    between atoms: _231  and  _232
REMARK   97  A    between atoms: _235  and  _237
REMARK   98  A    between atoms: _237  and  _238
REMARK   99  A    between atoms: _240  and  _242
REMARK  100  A    between atoms: _242  and  _243
REMARK  101  A    between atoms: _242  and  _245
REMARK  102  A    between atoms: _245  and  _246
REMARK  103  A    between atoms: _246  and  _247
REMARK  104  A    between atoms: _247  and  _248
REMARK  105  A    between atoms: _257  and  _259
REMARK  106  A    between atoms: _259  and  _260
REMARK  107  A    between atoms: _259  and  _262
REMARK  108  A    between atoms: _262  and  _263
REMARK  109  A    between atoms: _268  and  _270
REMARK  110  A    between atoms: _270  and  _271
REMARK  111  A    between atoms: _270  and  _273
REMARK  112  A    between atoms: _273  and  _274
REMARK  113  A    between atoms: _274  and  _275
REMARK  114  A    between atoms: _275  and  _276
REMARK  115  A    between atoms: _285  and  _287
REMARK  116  A    between atoms: _287  and  _288
REMARK  117  A    between atoms: _287  and  _290
REMARK  118  A    between atoms: _290  and  _291
REMARK  119  A    between atoms: _294  and  _296
REMARK  120  A    between atoms: _296  and  _297
REMARK  121  A    between atoms: _296  and  _299
REMARK  122  A    between atoms: _299  and  _300
REMARK  123  A    between atoms: _303  and  _305
REMARK  124  A    between atoms: _305  and  _306
REMARK  125  A    between atoms: _305  and  _308
REMARK  126  A    between atoms: _308  and  _309
REMARK  127  A    between atoms: _314  and  _316
REMARK  128  A    between atoms: _316  and  _317
REMARK  129  A    between atoms: _316  and  _319
REMARK  130  A    between atoms: _319  and  _320
REMARK  131  A    between atoms: _323  and  _325
REMARK  132  A    between atoms: _325  and  _326
REMARK  133  A    between atoms: _328  and  _330
REMARK  134  A    between atoms: _330  and  _331
REMARK  135  A    between atoms: _334  and  _336
REMARK  136  A    between atoms: _336  and  _337
REMARK  137  A    between atoms: _336  and  _339
REMARK  138  A    between atoms: _339  and  _340
REMARK  139  A    between atoms: _343  and  _345
REMARK  140  A    between atoms: _345  and  _346
REMARK  141  A    between atoms: _345  and  _348
REMARK  142  A    between atoms: _348  and  _349
REMARK  143  A    between atoms: _352  and  _354
REMARK  144  A    between atoms: _354  and  _355
REMARK  145  A    between atoms: _354  and  _357
REMARK  146  A    between atoms: _357  and  _358
REMARK  147  A    between atoms: _361  and  _363
REMARK  148  A    between atoms: _363  and  _364
REMARK  149  A    between atoms: _363  and  _366
REMARK  150  A    between atoms: _369  and  _371
REMARK  151  A    between atoms: _371  and  _372
REMARK  152  A    between atoms: _371  and  _374
REMARK  153  A    between atoms: _374  and  _375
REMARK  154  A    between atoms: _375  and  _376
REMARK  155  A    between atoms: _376  and  _377
REMARK  156  A    between atoms: _377  and  _378
REMARK  157  A    between atoms: _382  and  _384
REMARK  158  A    between atoms: _384  and  _385
REMARK  159  A    between atoms: _384  and  _387
REMARK  160  A    between atoms: _387  and  _388
REMARK  161  A    between atoms: _388  and  _389
REMARK  162  A    between atoms: _391  and  _393
REMARK  163  A    between atoms: _393  and  _394
REMARK  164  A    between atoms: _393  and  _396
REMARK  165  A    between atoms: _396  and  _397
REMARK  166  A    between atoms: _400  and  _402
REMARK  167  A    between atoms: _402  and  _403
REMARK  168  A    between atoms: _405  and  _407
REMARK  169  A    between atoms: _407  and  _408
REMARK  170  A    between atoms: _410  and  _412
REMARK  171  A    between atoms: _412  and  _413
REMARK  172  A    between atoms: _412  and  _415
REMARK  173  A    between atoms: _415  and  _416
REMARK  174  A    between atoms: _419  and  _421
REMARK  175  A    between atoms: _421  and  _422
REMARK  176  A    between atoms: _424  and  _426
REMARK  177  A    between atoms: _426  and  _427
REMARK  178  A    between atoms: _429  and  _431
REMARK  179  A    between atoms: _431  and  _432
REMARK  180  A    between atoms: _431  and  _434
REMARK  181  A    between atoms: _434  and  _435
REMARK  182  A    between atoms: _441  and  _443
REMARK  183  A    between atoms: _443  and  _444
REMARK  184  A    between atoms: _443  and  _446
REMARK  185  A    between atoms: _446  and  _447
REMARK  186  A    between atoms: _450  and  _452
REMARK  187  A    between atoms: _452  and  _453
REMARK  188  A    between atoms: _452  and  _455
REMARK  189  A    between atoms: _458  and  _460
REMARK  190  A    between atoms: _460  and  _461
REMARK  191  A    between atoms: _460  and  _463
REMARK  192  A    between atoms: _463  and  _464
REMARK  193  A    between atoms: _468  and  _469
REMARK  194  A    between atoms: _474  and  _476
REMARK  195  A    between atoms: _476  and  _477
REMARK  196  A    between atoms: _476  and  _479
REMARK  197  A    between atoms: _479  and  _480
REMARK  198  A    between atoms: _484  and  _485
REMARK  199  A    between atoms: _490  and  _492
REMARK  200  A    between atoms: _492  and  _493
REMARK  201  A    between atoms: _492  and  _495
REMARK  202  A    between atoms: _498  and  _500
REMARK  203  A    between atoms: _500  and  _501
REMARK  204  A    between atoms: _500  and  _503
REMARK  205  A    between atoms: _503  and  _504
REMARK  206  A    between atoms: _509  and  _511
REMARK  207  A    between atoms: _511  and  _512
REMARK  208  A    between atoms: _511  and  _514
REMARK  209  A    between atoms: _514  and  _515
REMARK  210  A    between atoms: _518  and  _520
REMARK  211  A    between atoms: _520  and  _521
REMARK  212  A    between atoms: _520  and  _523
REMARK  213  A    between atoms: _523  and  _524
REMARK  214  A    between atoms: _527  and  _529
REMARK  215  A    between atoms: _529  and  _530
REMARK  216  A    between atoms: _532  and  _534
REMARK  217  A    between atoms: _534  and  _535
REMARK  218  A    between atoms: _534  and  _537
REMARK  219  A    between atoms: _537  and  _538
REMARK  220  A    between atoms: _538  and  _539
REMARK  221  A    between atoms: _539  and  _540
REMARK  222  A    between atoms: _549  and  _551
REMARK  223  A    between atoms: _551  and  _552
REMARK  224  A    between atoms: _551  and  _554
REMARK  225  A    between atoms: _554  and  _555
REMARK                            x       y       z     vdW  Elec       q    Type
REMARK                         _______ _______ _______ _____ _____    ______ ____
ROOT
ATOM      1  CA  ARG A   2      16.611  35.050  17.553  0.00  0.00    +0.149 C 
ENDROOT
BRANCH   1   3
ATOM      2  C   GLY A   1      15.852  33.731  15.630  0.00  0.00    +0.240 C 
ATOM      3  N   ARG A   2      16.586  33.811  16.744  0.00  0.00    -0.297 N 
ATOM      4  H   ARG A   2      17.148  32.990  17.047  0.00  0.00    +0.150 HD
ATOM      5  O   GLY A   1      15.272  34.711  15.141  0.00  0.00    -0.274 OA
BRANCH   2   6
ATOM      6  CA  GLY A   1      15.768  32.336  15.052  0.00  0.00    +0.169 C 
BRANCH   6   7
ATOM      7  N   GLY A   1      15.025  32.294  13.821  0.00  0.00    -0.236 NA
ATOM      8  H   GLY A   1      15.505  32.581  12.944  0.00  0.00    +0.142 HD
ENDBRANCH   6   7
ENDBRANCH   2   6
ENDBRANCH   1   3
BRANCH   1   9
ATOM      9  C   ARG A   2      17.112  36.229  16.790  0.00  0.00    +0.241 C 
ATOM     10  O   ARG A   2      16.666  37.348  17.087  0.00  0.00    -0.273 OA
ATOM     11  N   ASN A   3      18.015  36.036  15.843  0.00  0.00    -0.298 N 
ATOM     12  H   ASN A   3      18.352  35.075  15.630  0.00  0.00    +0.150 HD
BRANCH  11  13
ATOM     13  CA  ASN A   3      18.537  37.177  15.098  0.00  0.00    +0.146 C 
BRANCH  13  14
ATOM     14  C   ASN A   3      17.483  37.976  14.389  0.00  0.00    +0.227 C 
ATOM     15  O   ASN A   3      17.645  39.188  14.186  0.00  0.00    -0.286 OA
ENDBRANCH  13  14
BRANCH  13  16
ATOM     16  CB  ASN A   3      19.655  36.741  14.124  0.00  0.00    +0.112 C 
BRANCH  16  17
ATOM     17  CG  ASN A   3      19.096  36.021  12.908  0.00  0.00    +0.222 C 
ATOM     18  OD1 ASN A   3      18.379  35.054  13.036  0.00  0.00    -0.275 OA
ATOM     19  ND2 ASN A   3      19.459  36.499  11.753  0.00  0.00    -0.329 N 
ATOM     20 HD21 ASN A   3      20.077  37.334  11.707  0.00  0.00    +0.145 HD
ATOM     21 HD22 ASN A   3      19.131  36.046  10.876  0.00  0.00    +0.145 HD
ENDBRANCH  16  17
ENDBRANCH  13  16
ENDBRANCH  11  13
ENDBRANCH   1   9
BRANCH   1  22
ATOM     22  CB  ARG A   2      17.402  34.844  18.830  0.00  0.00    +0.033 C 
BRANCH  22  23
ATOM     23  CG  ARG A   2      16.762  33.855  19.795  0.00  0.00    +0.045 C 
BRANCH  23  24
ATOM     24  CD  ARG A   2      17.483  33.775  21.154  0.00  0.00    +0.174 C 
BRANCH  24  25
ATOM     25  NE  ARG A   2      18.862  33.333  21.026  0.00  0.00    -0.265 N 
ATOM     26  CZ  ARG A   2      19.948  34.073  20.988  0.00  0.00    +0.342 C 
ATOM     27  NH2 ARG A   2      19.916  35.397  21.124  0.00  0.00    -0.292 N 
ATOM     28 HH21 ARG A   2      19.008  35.883  21.267  0.00  0.00    +0.255 HD
ATOM     29 HH22 ARG A   2      20.799  35.945  21.088  0.00  0.00    +0.255 HD
ATOM     30  NH1 ARG A   2      21.116  33.476  20.829  0.00  0.00    -0.292 N 
ATOM     31 HH11 ARG A   2      21.989  34.041  20.796  0.00  0.00    +0.255 HD
ATOM     32 HH12 ARG A   2      21.163  32.441  20.737  0.00  0.00    +0.255 HD
ATOM     33  HE  ARG A   2      19.007  32.306  20.956  0.00  0.00    +0.259 HD
ENDBRANCH  24  25
ENDBRANCH  23  24
ENDBRANCH  22  23
ENDBRANCH   1  22
TORSDOF 12
REMARK  Name = ../refined-set-2016/3bva/3bva_pocket.pdb
REMARK  225 active torsions:
REMARK  status: ('A' for Active; 'I' for Inactive)
REMARK    1  A    between atoms: _1  and  _3
REMARK    2  A    between atoms: _3  and  _4
REMARK    3  A    between atoms: _3  and  _6
REMARK    4  A    between atoms: _6  and  _7
REMARK    5  A    between atoms: _7  and  _8
REMARK    6  A    between atoms: _8  and  _9
REMARK    7  A    between atoms: _18  and  _20
REMARK    8  A    between atoms: _20  and  _21
REMARK    9  A    between atoms: _20  and  _23
REMARK   10  A    between atoms: _23  and  _24
REMARK   11  A    between atoms: _27  and  _29
REMARK   12  A    between atoms: _29  and  _30
REMARK   13  A    between atoms: _29  and  _32
REMARK   14  A    between atoms: _32  and  _33
REMARK   15  A    between atoms: _38  and  _40
REMARK   16  A    between atoms: _40  and  _41
REMARK   17  A    between atoms: _40  and  _43
REMARK   18  A    between atoms: _43  and  _44
REMARK   19  A    between atoms: _47  and  _49
REMARK   20  A    between atoms: _49  and  _50
REMARK   21  A    between atoms: _52  and  _54
REMARK   22  A    between atoms: _54  and  _55
REMARK   23  A    between atoms: _58  and  _60
REMARK   24  A    between atoms: _60  and  _61
REMARK   25  A    between atoms: _60  and  _63
REMARK   26  A    between atoms: _63  and  _64
REMARK   27  A    between atoms: _67  and  _69
REMARK   28  A    between atoms: _69  and  _70
REMARK   29  A    between atoms: _69  and  _72
REMARK   30  A    between atoms: _72  and  _73
REMARK   31  A    between atoms: _76  and  _78
REMARK   32  A    between atoms: _78  and  _79
REMARK   33  A    between atoms: _78  and  _81
REMARK   34  A    between atoms: _81  and  _82
REMARK   35  A    between atoms: _85  and  _87
REMARK   36  A    between atoms: _87  and  _88
REMARK   37  A    between atoms: _87  and  _90
REMARK   38  A    between atoms: _93  and  _95
REMARK   39  A    between atoms: _95  and  _96
REMARK   40  A    between atoms: _95  and  _98
REMARK   41  A    between atoms: _98  and  _99
REMARK   42  A    between atoms: _99  and  _100
REMARK   43  A    between atoms: _100  and  _101
REMARK   44  A    between atoms: _101  and  _102
REMARK   45  A    between atoms: _106  and  _108
REMARK   46  A    between atoms: _108  and  _109
REMARK   47  A    between atoms: _108  and  _111
REMARK   48  A    between atoms: _111  and  _112
REMARK   49  A    between atoms: _112  and  _113
REMARK   50  A    between atoms: _115  and  _117
REMARK   51  A    between atoms: _117  and  _118
REMARK   52  A    between atoms: _117  and  _120
REMARK   53  A    between atoms: _120  and  _121
REMARK   54  A    between atoms: _124  and  _126
REMARK   55  A    between atoms: _126  and  _127
REMARK   56  A    between atoms: _129  and  _131
REMARK   57  A    between atoms: _131  and  _132
REMARK   58  A    between atoms: _134  and  _136
REMARK   59  A    between atoms: _136  and  _137
REMARK   60  A    between atoms: _136  and  _139
REMARK   61  A    between atoms: _139  and  _140
REMARK   62  A    between atoms: _143  and  _145
REMARK   63  A    between atoms: _145  and  _146
REMARK   64  A    between atoms: _148  and  _150
REMARK   65  A    between atoms: _150  and  _151
REMARK   66  A    between atoms: _153  and  _155
REMARK   67  A    between atoms: _155  and  _156
REMARK   68  A    between atoms: _155  and  _158
REMARK   69  A    between atoms: _158  and  _159
REMARK   70  A    between atoms: _165  and  _167
REMARK   71  A    between atoms: _167  and  _168
REMARK   72  A    between atoms: _167  and  _170
REMARK   73  A    between atoms: _170  and  _171
REMARK   74  A    between atoms: _174  and  _176
REMARK   75  A    between atoms: _176  and  _177
REMARK   76  A    between atoms: _176  and  _179
REMARK   77  A    between atoms: _182  and  _184
REMARK   78  A    between atoms: _184  and  _185
REMARK   79  A    between atoms: _184  and  _187
REMARK   80  A    between atoms: _187  and  _188
REMARK   81  A    between atoms: _191  and  _193
REMARK   82  A    between atoms: _193  and  _194
REMARK   83  A    between atoms: _193  and  _196
REMARK   84  A    between atoms: _196  and  _197
REMARK   85  A    between atoms: _201  and  _202
REMARK   86  A    between atoms: _207  and  _209
REMARK   87  A    between atoms: _209  and  _210
REMARK   88  A    between atoms: _209  and  _212
REMARK   89  A    between atoms: _215  and  _217
REMARK   90  A    between atoms: _217  and  _218
REMARK   91  A    between atoms: _217  and  _220
REMARK   92  A    between atoms: _220  and  _221
REMARK   93  A    between atoms: _226  and  _228
REMARK   94  A    between atoms: _228  and  _229
REMARK   95  A    between atoms: _228  and  _231
REMARK   96  A    between atoms: _231  and  _232
REMARK   97  A    between atoms: _235  and  _237
REMARK   98  A    between atoms: _237  and  _238
REMARK   99  A    between atoms: _240  and  _242
REMARK  100  A    between atoms: _242  and  _243
REMARK  101  A    between atoms: _242  and  _245
REMARK  102  A    between atoms: _245  and  _246
REMARK  103  A    between atoms: _246  and  _247
REMARK  104  A    between atoms: _247  and  _248
REMARK  105  A    between atoms: _257  and  _259
REMARK  106  A    between atoms: _259  and  _260
REMARK  107  A    between atoms: _259  and  _262
REMARK  108  A    between atoms: _262  and  _263
REMARK  109  A    between atoms: _268  and  _270
REMARK  110  A    between atoms: _270  and  _271
REMARK  111  A    between atoms: _270  and  _273
REMARK  112  A    between atoms: _273  and  _274
REMARK  113  A    between atoms: _274  and  _275
REMARK  114  A    between atoms: _275  and  _276
REMARK  115  A    between atoms: _285  and  _287
REMARK  116  A    between atoms: _287  and  _288
REMARK  117  A    between atoms: _287  and  _290
REMARK  118  A    between atoms: _290  and  _291
REMARK  119  A    between atoms: _294  and  _296
REMARK  120  A    between atoms: _296  and  _297
REMARK  121  A    between atoms: _296  and  _299
REMARK  122  A    between atoms: _299  and  _300
REMARK  123  A    between atoms: _303  and  _305
REMARK  124  A    between atoms: _305  and  _306
REMARK  125  A    between atoms: _305  and  _308
REMARK  126  A    between atoms: _308  and  _309
REMARK  127  A    between atoms: _314  and  _316
REMARK  128  A    between atoms: _316  and  _317
REMARK  129  A    between atoms: _316  and  _319
REMARK  130  A    between atoms: _319  and  _320
REMARK  131  A    between atoms: _323  and  _325
REMARK  132  A    between atoms: _325  and  _326
REMARK  133  A    between atoms: _328  and  _330
REMARK  134  A    between atoms: _330  and  _331
REMARK  135  A    between atoms: _334  and  _336
REMARK  136  A    between atoms: _336  and  _337
REMARK  137  A    between atoms: _336  and  _339
REMARK  138  A    between atoms: _339  and  _340
REMARK  139  A    between atoms: _343  and  _345
REMARK  140  A    between atoms: _345  and  _346
REMARK  141  A    between atoms: _345  and  _348
REMARK  142  A    between atoms: _348  and  _349
REMARK  143  A    between atoms: _352  and  _354
REMARK  144  A    between atoms: _354  and  _355
REMARK  145  A    between atoms: _354  and  _357
REMARK  146  A    between atoms: _357  and  _358
REMARK  147  A    between atoms: _361  and  _363
REMARK  148  A    between atoms: _363  and  _364
REMARK  149  A    between atoms: _363  and  _366
REMARK  150  A    between atoms: _369  and  _371
REMARK  151  A    between atoms: _371  and  _372
REMARK  152  A    between atoms: _371  and  _374
REMARK  153  A    between atoms: _374  and  _375
REMARK  154  A    between atoms: _375  and  _376
REMARK  155  A    between atoms: _376  and  _377
REMARK  156  A    between atoms: _377  and  _378
REMARK  157  A    between atoms: _382  and  _384
REMARK  158  A    between atoms: _384  and  _385
REMARK  159  A    between atoms: _384  and  _387
REMARK  160  A    between atoms: _387  and  _388
REMARK  161  A    between atoms: _388  and  _389
REMARK  162  A    between atoms: _391  and  _393
REMARK  163  A    between atoms: _393  and  _394
REMARK  164  A    between atoms: _393  and  _396
REMARK  165  A    between atoms: _396  and  _397
REMARK  166  A    between atoms: _400  and  _402
REMARK  167  A    between atoms: _402  and  _403
REMARK  168  A    between atoms: _405  and  _407
REMARK  169  A    between atoms: _407  and  _408
REMARK  170  A    between atoms: _410  and  _412
REMARK  171  A    between atoms: _412  and  _413
REMARK  172  A    between atoms: _412  and  _415
REMARK  173  A    between atoms: _415  and  _416
REMARK  174  A    between atoms: _419  and  _421
REMARK  175  A    between atoms: _421  and  _422
REMARK  176  A    between atoms: _424  and  _426
REMARK  177  A    between atoms: _426  and  _427
REMARK  178  A    between atoms: _429  and  _431
REMARK  179  A    between atoms: _431  and  _432
REMARK  180  A    between atoms: _431  and  _434
REMARK  181  A    between atoms: _434  and  _435
REMARK  182  A    between atoms: _441  and  _443
REMARK  183  A    between atoms: _443  and  _444
REMARK  184  A    between atoms: _443  and  _446
REMARK  185  A    between atoms: _446  and  _447
REMARK  186  A    between atoms: _450  and  _452
REMARK  187  A    between atoms: _452  and  _453
REMARK  188  A    between atoms: _452  and  _455
REMARK  189  A    between atoms: _458  and  _460
REMARK  190  A    between atoms: _460  and  _461
REMARK  191  A    between atoms: _460  and  _463
REMARK  192  A    between atoms: _463  and  _464
REMARK  193  A    between atoms: _468  and  _469
REMARK  194  A    between atoms: _474  and  _476
REMARK  195  A    between atoms: _476  and  _477
REMARK  196  A    between atoms: _476  and  _479
REMARK  197  A    between atoms: _479  and  _480
REMARK  198  A    between atoms: _484  and  _485
REMARK  199  A    between atoms: _490  and  _492
REMARK  200  A    between atoms: _492  and  _493
REMARK  201  A    between atoms: _492  and  _495
REMARK  202  A    between atoms: _498  and  _500
REMARK  203  A    between atoms: _500  and  _501
REMARK  204  A    between atoms: _500  and  _503
REMARK  205  A    between atoms: _503  and  _504
REMARK  206  A    between atoms: _509  and  _511
REMARK  207  A    between atoms: _511  and  _512
REMARK  208  A    between atoms: _511  and  _514
REMARK  209  A    between atoms: _514  and  _515
REMARK  210  A    between atoms: _518  and  _520
REMARK  211  A    between atoms: _520  and  _521
REMARK  212  A    between atoms: _520  and  _523
REMARK  213  A    between atoms: _523  and  _524
REMARK  214  A    between atoms: _527  and  _529
REMARK  215  A    between atoms: _529  and  _530
REMARK  216  A    between atoms: _532  and  _534
REMARK  217  A    between atoms: _534  and  _535
REMARK  218  A    between atoms: _534  and  _537
REMARK  219  A    between atoms: _537  and  _538
REMARK  220  A    between atoms: _538  and  _539
REMARK  221  A    between atoms: _539  and  _540
REMARK  222  A    between atoms: _549  and  _551
REMARK  223  A    between atoms: _551  and  _552
REMARK  224  A    between atoms: _551  and  _554
REMARK  225  A    between atoms: _554  and  _555
REMARK                            x       y       z     vdW  Elec       q    Type
REMARK                         _______ _______ _______ _____ _____    ______ ____
ROOT
ATOM      1  NE  ARG A   1      23.038  30.020  24.745  0.00  0.00    -0.265 N 
ATOM      2  CZ  ARG A   1      23.499  28.890  25.324  0.00  0.00    +0.342 C 
ATOM      3  NH2 ARG A   1      24.437  29.096  26.230  0.00  0.00    -0.292 N 
ATOM      4 HH21 ARG A   1      24.858  28.290  26.735  0.00  0.00    +0.255 HD
ATOM      5 HH22 ARG A   1      24.754  30.064  26.439  0.00  0.00    +0.255 HD
ATOM      6  NH1 ARG A   1      23.081  27.665  25.077  0.00  0.00    -0.292 N 
ATOM      7 HH11 ARG A   1      23.505  26.860  25.580  0.00  0.00    +0.255 HD
ATOM      8 HH12 ARG A   1      22.327  27.504  24.379  0.00  0.00    +0.255 HD
ATOM      9  HE  ARG A   1      23.456  30.916  25.067  0.00  0.00    +0.259 HD
ENDROOT
BRANCH   1  10
ATOM     10  CD  ARG A   1      22.026  30.107  23.727  0.00  0.00    +0.174 C 
BRANCH  10  11
ATOM     11  CG  ARG A   1      21.474  31.516  23.615  0.00  0.00    +0.045 C 
BRANCH  11  12
ATOM     12  CB  ARG A   1      20.638  31.861  24.823  0.00  0.00    +0.029 C 
BRANCH  12  13
ATOM     13  CA  ARG A   1      19.696  33.060  24.716  0.00  0.00    +0.133 C 
BRANCH  13  14
ATOM     14  N   ARG A   1      20.433  34.299  24.557  0.00  0.00    -0.239 NA
ATOM     15  H   ARG A   1      21.473  34.285  24.556  0.00  0.00    +0.142 HD
ENDBRANCH  13  14
BRANCH  13  16
ATOM     16  C   ARG A   1      18.769  33.109  25.921  0.00  0.00    +0.224 C 
ATOM     17  O   ARG A   1      19.222  33.605  26.992  0.00  0.00    -0.287 OA
ENDBRANCH  13  16
ENDBRANCH  12  13
ENDBRANCH  11  12
ENDBRANCH  10  11
ENDBRANCH   1  10
TORSDOF 6
REMARK  Name = ../refined-set-2016/3bva/3bva_pocket.pdb
REMARK  225 active torsions:
REMARK  status: ('A' for Active; 'I' for Inactive)
REMARK    1  A    between atoms: _1  and  _3
REMARK    2  A    between atoms: _3  and  _4
REMARK    3  A    between atoms: _3  and  _6
REMARK    4  A    between atoms: _6  and  _7
REMARK    5  A    between atoms: _7  and  _8
REMARK    6  A    between atoms: _8  and  _9
REMARK    7  A    between atoms: _18  and  _20
REMARK    8  A    between atoms: _20  and  _21
REMARK    9  A    between atoms: _20  and  _23
REMARK   10  A    between atoms: _23  and  _24
REMARK   11  A    between atoms: _27  and  _29
REMARK   12  A    between atoms: _29  and  _30
REMARK   13  A    between atoms: _29  and  _32
REMARK   14  A    between atoms: _32  and  _33
REMARK   15  A    between atoms: _38  and  _40
REMARK   16  A    between atoms: _40  and  _41
REMARK   17  A    between atoms: _40  and  _43
REMARK   18  A    between atoms: _43  and  _44
REMARK   19  A    between atoms: _47  and  _49
REMARK   20  A    between atoms: _49  and  _50
REMARK   21  A    between atoms: _52  and  _54
REMARK   22  A    between atoms: _54  and  _55
REMARK   23  A    between atoms: _58  and  _60
REMARK   24  A    between atoms: _60  and  _61
REMARK   25  A    between atoms: _60  and  _63
REMARK   26  A    between atoms: _63  and  _64
REMARK   27  A    between atoms: _67  and  _69
REMARK   28  A    between atoms: _69  and  _70
REMARK   29  A    between atoms: _69  and  _72
REMARK   30  A    between atoms: _72  and  _73
REMARK   31  A    between atoms: _76  and  _78
REMARK   32  A    between atoms: _78  and  _79
REMARK   33  A    between atoms: _78  and  _81
REMARK   34  A    between atoms: _81  and  _82
REMARK   35  A    between atoms: _85  and  _87
REMARK   36  A    between atoms: _87  and  _88
REMARK   37  A    between atoms: _87  and  _90
REMARK   38  A    between atoms: _93  and  _95
REMARK   39  A    between atoms: _95  and  _96
REMARK   40  A    between atoms: _95  and  _98
REMARK   41  A    between atoms: _98  and  _99
REMARK   42  A    between atoms: _99  and  _100
REMARK   43  A    between atoms: _100  and  _101
REMARK   44  A    between atoms: _101  and  _102
REMARK   45  A    between atoms: _106  and  _108
REMARK   46  A    between atoms: _108  and  _109
REMARK   47  A    between atoms: _108  and  _111
REMARK   48  A    between atoms: _111  and  _112
REMARK   49  A    between atoms: _112  and  _113
REMARK   50  A    between atoms: _115  and  _117
REMARK   51  A    between atoms: _117  and  _118
REMARK   52  A    between atoms: _117  and  _120
REMARK   53  A    between atoms: _120  and  _121
REMARK   54  A    between atoms: _124  and  _126
REMARK   55  A    between atoms: _126  and  _127
REMARK   56  A    between atoms: _129  and  _131
REMARK   57  A    between atoms: _131  and  _132
REMARK   58  A    between atoms: _134  and  _136
REMARK   59  A    between atoms: _136  and  _137
REMARK   60  A    between atoms: _136  and  _139
REMARK   61  A    between atoms: _139  and  _140
REMARK   62  A    between atoms: _143  and  _145
REMARK   63  A    between atoms: _145  and  _146
REMARK   64  A    between atoms: _148  and  _150
REMARK   65  A    between atoms: _150  and  _151
REMARK   66  A    between atoms: _153  and  _155
REMARK   67  A    between atoms: _155  and  _156
REMARK   68  A    between atoms: _155  and  _158
REMARK   69  A    between atoms: _158  and  _159
REMARK   70  A    between atoms: _165  and  _167
REMARK   71  A    between atoms: _167  and  _168
REMARK   72  A    between atoms: _167  and  _170
REMARK   73  A    between atoms: _170  and  _171
REMARK   74  A    between atoms: _174  and  _176
REMARK   75  A    between atoms: _176  and  _177
REMARK   76  A    between atoms: _176  and  _179
REMARK   77  A    between atoms: _182  and  _184
REMARK   78  A    between atoms: _184  and  _185
REMARK   79  A    between atoms: _184  and  _187
REMARK   80  A    between atoms: _187  and  _188
REMARK   81  A    between atoms: _191  and  _193
REMARK   82  A    between atoms: _193  and  _194
REMARK   83  A    between atoms: _193  and  _196
REMARK   84  A    between atoms: _196  and  _197
REMARK   85  A    between atoms: _201  and  _202
REMARK   86  A    between atoms: _207  and  _209
REMARK   87  A    between atoms: _209  and  _210
REMARK   88  A    between atoms: _209  and  _212
REMARK   89  A    between atoms: _215  and  _217
REMARK   90  A    between atoms: _217  and  _218
REMARK   91  A    between atoms: _217  and  _220
REMARK   92  A    between atoms: _220  and  _221
REMARK   93  A    between atoms: _226  and  _228
REMARK   94  A    between atoms: _228  and  _229
REMARK   95  A    between atoms: _228  and  _231
REMARK   96  A    between atoms: _231  and  _232
REMARK   97  A    between atoms: _235  and  _237
REMARK   98  A    between atoms: _237  and  _238
REMARK   99  A    between atoms: _240  and  _242
REMARK  100  A    between atoms: _242  and  _243
REMARK  101  A    between atoms: _242  and  _245
REMARK  102  A    between atoms: _245  and  _246
REMARK  103  A    between atoms: _246  and  _247
REMARK  104  A    between atoms: _247  and  _248
REMARK  105  A    between atoms: _257  and  _259
REMARK  106  A    between atoms: _259  and  _260
REMARK  107  A    between atoms: _259  and  _262
REMARK  108  A    between atoms: _262  and  _263
REMARK  109  A    between atoms: _268  and  _270
REMARK  110  A    between atoms: _270  and  _271
REMARK  111  A    between atoms: _270  and  _273
REMARK  112  A    between atoms: _273  and  _274
REMARK  113  A    between atoms: _274  and  _275
REMARK  114  A    between atoms: _275  and  _276
REMARK  115  A    between atoms: _285  and  _287
REMARK  116  A    between atoms: _287  and  _288
REMARK  117  A    between atoms: _287  and  _290
REMARK  118  A    between atoms: _290  and  _291
REMARK  119  A    between atoms: _294  and  _296
REMARK  120  A    between atoms: _296  and  _297
REMARK  121  A    between atoms: _296  and  _299
REMARK  122  A    between atoms: _299  and  _300
REMARK  123  A    between atoms: _303  and  _305
REMARK  124  A    between atoms: _305  and  _306
REMARK  125  A    between atoms: _305  and  _308
REMARK  126  A    between atoms: _308  and  _309
REMARK  127  A    between atoms: _314  and  _316
REMARK  128  A    between atoms: _316  and  _317
REMARK  129  A    between atoms: _316  and  _319
REMARK  130  A    between atoms: _319  and  _320
REMARK  131  A    between atoms: _323  and  _325
REMARK  132  A    between atoms: _325  and  _326
REMARK  133  A    between atoms: _328  and  _330
REMARK  134  A    between atoms: _330  and  _331
REMARK  135  A    between atoms: _334  and  _336
REMARK  136  A    between atoms: _336  and  _337
REMARK  137  A    between atoms: _336  and  _339
REMARK  138  A    between atoms: _339  and  _340
REMARK  139  A    between atoms: _343  and  _345
REMARK  140  A    between atoms: _345  and  _346
REMARK  141  A    between atoms: _345  and  _348
REMARK  142  A    between atoms: _348  and  _349
REMARK  143  A    between atoms: _352  and  _354
REMARK  144  A    between atoms: _354  and  _355
REMARK  145  A    between atoms: _354  and  _357
REMARK  146  A    between atoms: _357  and  _358
REMARK  147  A    between atoms: _361  and  _363
REMARK  148  A    between atoms: _363  and  _364
REMARK  149  A    between atoms: _363  and  _366
REMARK  150  A    between atoms: _369  and  _371
REMARK  151  A    between atoms: _371  and  _372
REMARK  152  A    between atoms: _371  and  _374
REMARK  153  A    between atoms: _374  and  _375
REMARK  154  A    between atoms: _375  and  _376
REMARK  155  A    between atoms: _376  and  _377
REMARK  156  A    between atoms: _377  and  _378
REMARK  157  A    between atoms: _382  and  _384
REMARK  158  A    between atoms: _384  and  _385
REMARK  159  A    between atoms: _384  and  _387
REMARK  160  A    between atoms: _387  and  _388
REMARK  161  A    between atoms: _388  and  _389
REMARK  162  A    between atoms: _391  and  _393
REMARK  163  A    between atoms: _393  and  _394
REMARK  164  A    between atoms: _393  and  _396
REMARK  165  A    between atoms: _396  and  _397
REMARK  166  A    between atoms: _400  and  _402
REMARK  167  A    between atoms: _402  and  _403
REMARK  168  A    between atoms: _405  and  _407
REMARK  169  A    between atoms: _407  and  _408
REMARK  170  A    between atoms: _410  and  _412
REMARK  171  A    between atoms: _412  and  _413
REMARK  172  A    between atoms: _412  and  _415
REMARK  173  A    between atoms: _415  and  _416
REMARK  174  A    between atoms: _419  and  _421
REMARK  175  A    between atoms: _421  and  _422
REMARK  176  A    between atoms: _424  and  _426
REMARK  177  A    between atoms: _426  and  _427
REMARK  178  A    between atoms: _429  and  _431
REMARK  179  A    between atoms: _431  and  _432
REMARK  180  A    between atoms: _431  and  _434
REMARK  181  A    between atoms: _434  and  _435
REMARK  182  A    between atoms: _441  and  _443
REMARK  183  A    between atoms: _443  and  _444
REMARK  184  A    between atoms: _443  and  _446
REMARK  185  A    between atoms: _446  and  _447
REMARK  186  A    between atoms: _450  and  _452
REMARK  187  A    between atoms: _452  and  _453
REMARK  188  A    between atoms: _452  and  _455
REMARK  189  A    between atoms: _458  and  _460
REMARK  190  A    between atoms: _460  and  _461
REMARK  191  A    between atoms: _460  and  _463
REMARK  192  A    between atoms: _463  and  _464
REMARK  193  A    between atoms: _468  and  _469
REMARK  194  A    between atoms: _474  and  _476
REMARK  195  A    between atoms: _476  and  _477
REMARK  196  A    between atoms: _476  and  _479
REMARK  197  A    between atoms: _479  and  _480
REMARK  198  A    between atoms: _484  and  _485
REMARK  199  A    between atoms: _490  and  _492
REMARK  200  A    between atoms: _492  and  _493
REMARK  201  A    between atoms: _492  and  _495
REMARK  202  A    between atoms: _498  and  _500
REMARK  203  A    between atoms: _500  and  _501
REMARK  204  A    between atoms: _500  and  _503
REMARK  205  A    between atoms: _503  and  _504
REMARK  206  A    between atoms: _509  and  _511
REMARK  207  A    between atoms: _511  and  _512
REMARK  208  A    between atoms: _511  and  _514
REMARK  209  A    between atoms: _514  and  _515
REMARK  210  A    between atoms: _518  and  _520
REMARK  211  A    between atoms: _520  and  _521
REMARK  212  A    between atoms: _520  and  _523
REMARK  213  A    between atoms: _523  and  _524
REMARK  214  A    between atoms: _527  and  _529
REMARK  215  A    between atoms: _529  and  _530
REMARK  216  A    between atoms: _532  and  _534
REMARK  217  A    between atoms: _534  and  _535
REMARK  218  A    between atoms: _534  and  _537
REMARK  219  A    between atoms: _537  and  _538
REMARK  220  A    between atoms: _538  and  _539
REMARK  221  A    between atoms: _539  and  _540
REMARK  222  A    between atoms: _549  and  _551
REMARK  223  A    between atoms: _551  and  _552
REMARK  224  A    between atoms: _551  and  _554
REMARK  225  A    between atoms: _554  and  _555
REMARK                            x       y       z     vdW  Elec       q    Type
REMARK                         _______ _______ _______ _____ _____    ______ ____
ROOT
ATOM      1  C   GLY A   5      10.932  23.986  19.027  0.00  0.00    +0.243 C 
ATOM      2  N   ALA A   6      10.703  23.643  20.310  0.00  0.00    -0.297 N 
ATOM      3  H   ALA A   6      10.479  24.396  20.991  0.00  0.00    +0.150 HD
ATOM      4  O   GLY A   5      11.228  23.162  18.150  0.00  0.00    -0.273 OA
ENDROOT
BRANCH   2   5
ATOM      5  CA  ALA A   6      10.753  22.277  20.786  0.00  0.00    +0.149 C 
ATOM      6  CB  ALA A   6      11.673  22.166  21.994  0.00  0.00    +0.031 C 
BRANCH   5   7
ATOM      7  C   ALA A   6       9.370  21.844  21.206  0.00  0.00    +0.241 C 
ATOM      8  O   ALA A   6       8.711  22.493  22.011  0.00  0.00    -0.273 OA
ATOM      9  N   ASP A   7       8.930  20.689  20.678  0.00  0.00    -0.297 N 
ATOM     10  H   ASP A   7       9.476  20.201  19.940  0.00  0.00    +0.150 HD
BRANCH   9  11
ATOM     11  CA  ASP A   7       7.654  20.126  21.168  0.00  0.00    +0.160 C 
BRANCH  11  12
ATOM     12  C   ASP A   7       7.749  19.693  22.621  0.00  0.00    +0.241 C 
ATOM     13  O   ASP A   7       6.766  19.814  23.366  0.00  0.00    -0.273 OA
ATOM     14  N   ASP A   8       8.911  19.171  22.988  0.00  0.00    -0.297 N 
ATOM     15  H   ASP A   8       9.717  19.269  22.338  0.00  0.00    +0.150 HD
BRANCH  14  16
ATOM     16  CA  ASP A   8       9.129  18.467  24.249  0.00  0.00    +0.160 C 
BRANCH  16  17
ATOM     17  C   ASP A   8      10.301  19.043  25.014  0.00  0.00    +0.241 C 
ATOM     18  N   THR A   9      10.392  18.681  26.259  0.00  0.00    -0.295 N 
ATOM     19  H   THR A   9       9.644  18.067  26.639  0.00  0.00    +0.150 HD
ATOM     20  O   ASP A   8      11.115  19.763  24.489  0.00  0.00    -0.273 OA
BRANCH  18  21
ATOM     21  CA  THR A   9      11.479  19.078  27.171  0.00  0.00    +0.176 C 
BRANCH  21  22
ATOM     22  C   THR A   9      12.515  17.975  27.193  0.00  0.00    +0.243 C 
ATOM     23  O   THR A   9      12.184  16.792  27.400  0.00  0.00    -0.273 OA
ATOM     24  N   VAL A  10      13.756  18.343  26.964  0.00  0.00    -0.298 N 
ATOM     25  H   VAL A  10      13.965  19.358  26.881  0.00  0.00    +0.150 HD
BRANCH  24  26
ATOM     26  CA  VAL A  10      14.871  17.377  26.818  0.00  0.00    +0.137 C 
BRANCH  26  27
ATOM     27  CB  VAL A  10      15.291  17.099  25.371  0.00  0.00    +0.026 C 
ATOM     28  CG2 VAL A  10      16.168  18.199  24.812  0.00  0.00    +0.002 C 
ATOM     29  CG1 VAL A  10      14.045  16.892  24.514  0.00  0.00    +0.002 C 
ENDBRANCH  26  27
BRANCH  26  30
ATOM     30  C   VAL A  10      16.030  17.848  27.675  0.00  0.00    +0.227 C 
ATOM     31  O   VAL A  10      16.492  18.984  27.520  0.00  0.00    -0.286 OA
ENDBRANCH  26  30
ENDBRANCH  24  26
ENDBRANCH  21  22
BRANCH  21  32
ATOM     32  CB  THR A   9      10.856  19.297  28.559  0.00  0.00    +0.137 C 
ATOM     33  CG2 THR A   9      11.889  19.540  29.615  0.00  0.00    +0.034 C 
BRANCH  32  34
ATOM     34  OG1 THR A   9       9.997  20.478  28.444  0.00  0.00    -0.382 OA
ATOM     35  HG1 THR A   9       9.298  20.311  27.763  0.00  0.00    +0.210 HD
ENDBRANCH  32  34
ENDBRANCH  21  32
ENDBRANCH  18  21
ENDBRANCH  16  17
BRANCH  16  36
ATOM     36  CB  ASP A   8       9.481  17.010  23.914  0.00  0.00    +0.143 C 
BRANCH  36  37
ATOM     37  CG  ASP A   8       8.467  16.345  22.995  0.00  0.00    +0.367 C 
ATOM     38  OD2 ASP A   8       7.285  16.309  23.369  0.00  0.00    -0.246 OA
ATOM     39  OD1 ASP A   8       8.826  15.838  21.920  0.00  0.00    -0.246 OA
ENDBRANCH  36  37
ENDBRANCH  16  36
ENDBRANCH  14  16
ENDBRANCH  11  12
BRANCH  11  40
ATOM     40  CB  ASP A   7       7.302  18.905  20.297  0.00  0.00    +0.143 C 
BRANCH  40  41
ATOM     41  CG  ASP A   7       7.124  19.123  18.808  0.00  0.00    +0.367 C 
ATOM     42  OD2 ASP A   7       6.906  20.250  18.365  0.00  0.00    -0.246 OA
ATOM     43  OD1 ASP A   7       7.158  18.067  18.085  0.00  0.00    -0.246 OA
ENDBRANCH  40  41
ENDBRANCH  11  40
ENDBRANCH   9  11
ENDBRANCH   5   7
ENDBRANCH   2   5
BRANCH   1  44
ATOM     44  CA  GLY A   5      10.838  25.444  18.648  0.00  0.00    +0.176 C 
BRANCH  44  46
ATOM     45  C   THR A   4       9.442  26.607  20.226  0.00  0.00    +0.243 C 
ATOM     46  N   GLY A   5      10.632  26.337  19.759  0.00  0.00    -0.295 N 
ATOM     47  H   GLY A   5      11.459  26.782  20.205  0.00  0.00    +0.150 HD
ATOM     48  O   THR A   4       8.402  26.189  19.694  0.00  0.00    -0.273 OA
BRANCH  45  49
ATOM     49  CA  THR A   4       9.349  27.540  21.444  0.00  0.00    +0.176 C 
BRANCH  49  52
ATOM     50  C   ASN A   3      11.111  26.602  22.820  0.00  0.00    +0.241 C 
ATOM     51  O   ASN A   3      10.543  25.491  22.831  0.00  0.00    -0.273 OA
ATOM     52  N   THR A   4      10.598  27.634  22.165  0.00  0.00    -0.295 N 
ATOM     53  H   THR A   4      11.110  28.539  22.170  0.00  0.00    +0.150 HD
BRANCH  50  54
ATOM     54  CA  ASN A   3      12.456  26.809  23.494  0.00  0.00    +0.158 C 
BRANCH  54  56
ATOM     55  C   LEU A   2      13.026  28.183  25.415  0.00  0.00    +0.241 C 
ATOM     56  N   ASN A   3      12.371  27.156  24.914  0.00  0.00    -0.297 N 
ATOM     57  H   ASN A   3      11.779  26.577  25.543  0.00  0.00    +0.150 HD
ATOM     58  O   LEU A   2      13.523  29.065  24.670  0.00  0.00    -0.273 OA
BRANCH  55  59
ATOM     59  CA  LEU A   2      13.179  28.249  26.919  0.00  0.00    +0.149 C 
BRANCH  59  61
ATOM     60  C   LEU A   1      15.293  27.052  27.108  0.00  0.00    +0.238 C 
ATOM     61  N   LEU A   2      14.599  28.180  27.231  0.00  0.00    -0.297 N 
ATOM     62  H   LEU A   2      15.086  29.038  27.560  0.00  0.00    +0.150 HD
ATOM     63  O   LEU A   1      14.781  25.987  26.744  0.00  0.00    -0.274 OA
BRANCH  60  64
ATOM     64  CA  LEU A   1      16.776  27.100  27.328  0.00  0.00    +0.145 C 
BRANCH  64  65
ATOM     65  N   LEU A   1      17.189  26.206  28.368  0.00  0.00    -0.238 NA
ATOM     66  H   LEU A   1      17.378  25.222  28.089  0.00  0.00    +0.142 HD
ENDBRANCH  64  65
BRANCH  64  67
ATOM     67  CB  LEU A   1      17.554  26.698  26.066  0.00  0.00    +0.026 C 
BRANCH  67  68
ATOM     68  CG  LEU A   1      17.478  27.540  24.840  0.00  0.00    +0.002 C 
ATOM     69  CD2 LEU A   1      18.122  28.892  25.059  0.00  0.00    +0.000 C 
ATOM     70  CD1 LEU A   1      18.227  26.842  23.695  0.00  0.00    +0.000 C 
ENDBRANCH  67  68
ENDBRANCH  64  67
ENDBRANCH  60  64
ENDBRANCH  59  61
BRANCH  59  71
ATOM     71  CB  LEU A   2      12.552  29.503  27.479  0.00  0.00    +0.029 C 
BRANCH  71  72
ATOM     72  CG  LEU A   2      12.626  29.670  29.014  0.00  0.00    +0.002 C 
ATOM     73  CD2 LEU A   2      12.039  28.495  29.734  0.00  0.00    +0.000 C 
ATOM     74  CD1 LEU A   2      11.919  31.015  29.344  0.00  0.00    +0.000 C 
ENDBRANCH  71  72
ENDBRANCH  59  71
ENDBRANCH  55  59
ENDBRANCH  54  56
BRANCH  54  75
ATOM     75  CB  ASN A   3      13.292  25.532  23.439  0.00  0.00    +0.114 C 
BRANCH  75  76
ATOM     76  CG  ASN A   3      13.740  25.255  22.061  0.00  0.00    +0.222 C 
ATOM     77  ND2 ASN A   3      14.636  24.272  21.904  0.00  0.00    -0.329 N 
ATOM     78 HD21 ASN A   3      15.030  23.789  22.737  0.00  0.00    +0.145 HD
ATOM     79 HD22 ASN A   3      14.938  23.991  20.949  0.00  0.00    +0.145 HD
ATOM     80  OD1 ASN A   3      13.268  25.834  21.059  0.00  0.00    -0.275 OA
ENDBRANCH  75  76
ENDBRANCH  54  75
ENDBRANCH  50  54
ENDBRANCH  49  52
BRANCH  49  81
ATOM     81  CB  THR A   4       8.859  28.908  20.991  0.00  0.00    +0.137 C 
ATOM     82  CG2 THR A   4       8.652  29.815  22.186  0.00  0.00    +0.034 C 
BRANCH  81  83
ATOM     83  OG1 THR A   4       9.825  29.503  20.104  0.00  0.00    -0.382 OA
ATOM     84  HG1 THR A   4       9.948  28.920  19.313  0.00  0.00    +0.210 HD
ENDBRANCH  81  83
ENDBRANCH  49  81
ENDBRANCH  45  49
ENDBRANCH  44  46
ENDBRANCH   1  44
TORSDOF 35
REMARK  Name = ../refined-set-2016/3bva/3bva_pocket.pdb
REMARK  225 active torsions:
REMARK  status: ('A' for Active; 'I' for Inactive)
REMARK    1  A    between atoms: _1  and  _3
REMARK    2  A    between atoms: _3  and  _4
REMARK    3  A    between atoms: _3  and  _6
REMARK    4  A    between atoms: _6  and  _7
REMARK    5  A    between atoms: _7  and  _8
REMARK    6  A    between atoms: _8  and  _9
REMARK    7  A    between atoms: _18  and  _20
REMARK    8  A    between atoms: _20  and  _21
REMARK    9  A    between atoms: _20  and  _23
REMARK   10  A    between atoms: _23  and  _24
REMARK   11  A    between atoms: _27  and  _29
REMARK   12  A    between atoms: _29  and  _30
REMARK   13  A    between atoms: _29  and  _32
REMARK   14  A    between atoms: _32  and  _33
REMARK   15  A    between atoms: _38  and  _40
REMARK   16  A    between atoms: _40  and  _41
REMARK   17  A    between atoms: _40  and  _43
REMARK   18  A    between atoms: _43  and  _44
REMARK   19  A    between atoms: _47  and  _49
REMARK   20  A    between atoms: _49  and  _50
REMARK   21  A    between atoms: _52  and  _54
REMARK   22  A    between atoms: _54  and  _55
REMARK   23  A    between atoms: _58  and  _60
REMARK   24  A    between atoms: _60  and  _61
REMARK   25  A    between atoms: _60  and  _63
REMARK   26  A    between atoms: _63  and  _64
REMARK   27  A    between atoms: _67  and  _69
REMARK   28  A    between atoms: _69  and  _70
REMARK   29  A    between atoms: _69  and  _72
REMARK   30  A    between atoms: _72  and  _73
REMARK   31  A    between atoms: _76  and  _78
REMARK   32  A    between atoms: _78  and  _79
REMARK   33  A    between atoms: _78  and  _81
REMARK   34  A    between atoms: _81  and  _82
REMARK   35  A    between atoms: _85  and  _87
REMARK   36  A    between atoms: _87  and  _88
REMARK   37  A    between atoms: _87  and  _90
REMARK   38  A    between atoms: _93  and  _95
REMARK   39  A    between atoms: _95  and  _96
REMARK   40  A    between atoms: _95  and  _98
REMARK   41  A    between atoms: _98  and  _99
REMARK   42  A    between atoms: _99  and  _100
REMARK   43  A    between atoms: _100  and  _101
REMARK   44  A    between atoms: _101  and  _102
REMARK   45  A    between atoms: _106  and  _108
REMARK   46  A    between atoms: _108  and  _109
REMARK   47  A    between atoms: _108  and  _111
REMARK   48  A    between atoms: _111  and  _112
REMARK   49  A    between atoms: _112  and  _113
REMARK   50  A    between atoms: _115  and  _117
REMARK   51  A    between atoms: _117  and  _118
REMARK   52  A    between atoms: _117  and  _120
REMARK   53  A    between atoms: _120  and  _121
REMARK   54  A    between atoms: _124  and  _126
REMARK   55  A    between atoms: _126  and  _127
REMARK   56  A    between atoms: _129  and  _131
REMARK   57  A    between atoms: _131  and  _132
REMARK   58  A    between atoms: _134  and  _136
REMARK   59  A    between atoms: _136  and  _137
REMARK   60  A    between atoms: _136  and  _139
REMARK   61  A    between atoms: _139  and  _140
REMARK   62  A    between atoms: _143  and  _145
REMARK   63  A    between atoms: _145  and  _146
REMARK   64  A    between atoms: _148  and  _150
REMARK   65  A    between atoms: _150  and  _151
REMARK   66  A    between atoms: _153  and  _155
REMARK   67  A    between atoms: _155  and  _156
REMARK   68  A    between atoms: _155  and  _158
REMARK   69  A    between atoms: _158  and  _159
REMARK   70  A    between atoms: _165  and  _167
REMARK   71  A    between atoms: _167  and  _168
REMARK   72  A    between atoms: _167  and  _170
REMARK   73  A    between atoms: _170  and  _171
REMARK   74  A    between atoms: _174  and  _176
REMARK   75  A    between atoms: _176  and  _177
REMARK   76  A    between atoms: _176  and  _179
REMARK   77  A    between atoms: _182  and  _184
REMARK   78  A    between atoms: _184  and  _185
REMARK   79  A    between atoms: _184  and  _187
REMARK   80  A    between atoms: _187  and  _188
REMARK   81  A    between atoms: _191  and  _193
REMARK   82  A    between atoms: _193  and  _194
REMARK   83  A    between atoms: _193  and  _196
REMARK   84  A    between atoms: _196  and  _197
REMARK   85  A    between atoms: _201  and  _202
REMARK   86  A    between atoms: _207  and  _209
REMARK   87  A    between atoms: _209  and  _210
REMARK   88  A    between atoms: _209  and  _212
REMARK   89  A    between atoms: _215  and  _217
REMARK   90  A    between atoms: _217  and  _218
REMARK   91  A    between atoms: _217  and  _220
REMARK   92  A    between atoms: _220  and  _221
REMARK   93  A    between atoms: _226  and  _228
REMARK   94  A    between atoms: _228  and  _229
REMARK   95  A    between atoms: _228  and  _231
REMARK   96  A    between atoms: _231  and  _232
REMARK   97  A    between atoms: _235  and  _237
REMARK   98  A    between atoms: _237  and  _238
REMARK   99  A    between atoms: _240  and  _242
REMARK  100  A    between atoms: _242  and  _243
REMARK  101  A    between atoms: _242  and  _245
REMARK  102  A    between atoms: _245  and  _246
REMARK  103  A    between atoms: _246  and  _247
REMARK  104  A    between atoms: _247  and  _248
REMARK  105  A    between atoms: _257  and  _259
REMARK  106  A    between atoms: _259  and  _260
REMARK  107  A    between atoms: _259  and  _262
REMARK  108  A    between atoms: _262  and  _263
REMARK  109  A    between atoms: _268  and  _270
REMARK  110  A    between atoms: _270  and  _271
REMARK  111  A    between atoms: _270  and  _273
REMARK  112  A    between atoms: _273  and  _274
REMARK  113  A    between atoms: _274  and  _275
REMARK  114  A    between atoms: _275  and  _276
REMARK  115  A    between atoms: _285  and  _287
REMARK  116  A    between atoms: _287  and  _288
REMARK  117  A    between atoms: _287  and  _290
REMARK  118  A    between atoms: _290  and  _291
REMARK  119  A    between atoms: _294  and  _296
REMARK  120  A    between atoms: _296  and  _297
REMARK  121  A    between atoms: _296  and  _299
REMARK  122  A    between atoms: _299  and  _300
REMARK  123  A    between atoms: _303  and  _305
REMARK  124  A    between atoms: _305  and  _306
REMARK  125  A    between atoms: _305  and  _308
REMARK  126  A    between atoms: _308  and  _309
REMARK  127  A    between atoms: _314  and  _316
REMARK  128  A    between atoms: _316  and  _317
REMARK  129  A    between atoms: _316  and  _319
REMARK  130  A    between atoms: _319  and  _320
REMARK  131  A    between atoms: _323  and  _325
REMARK  132  A    between atoms: _325  and  _326
REMARK  133  A    between atoms: _328  and  _330
REMARK  134  A    between atoms: _330  and  _331
REMARK  135  A    between atoms: _334  and  _336
REMARK  136  A    between atoms: _336  and  _337
REMARK  137  A    between atoms: _336  and  _339
REMARK  138  A    between atoms: _339  and  _340
REMARK  139  A    between atoms: _343  and  _345
REMARK  140  A    between atoms: _345  and  _346
REMARK  141  A    between atoms: _345  and  _348
REMARK  142  A    between atoms: _348  and  _349
REMARK  143  A    between atoms: _352  and  _354
REMARK  144  A    between atoms: _354  and  _355
REMARK  145  A    between atoms: _354  and  _357
REMARK  146  A    between atoms: _357  and  _358
REMARK  147  A    between atoms: _361  and  _363
REMARK  148  A    between atoms: _363  and  _364
REMARK  149  A    between atoms: _363  and  _366
REMARK  150  A    between atoms: _369  and  _371
REMARK  151  A    between atoms: _371  and  _372
REMARK  152  A    between atoms: _371  and  _374
REMARK  153  A    between atoms: _374  and  _375
REMARK  154  A    between atoms: _375  and  _376
REMARK  155  A    between atoms: _376  and  _377
REMARK  156  A    between atoms: _377  and  _378
REMARK  157  A    between atoms: _382  and  _384
REMARK  158  A    between atoms: _384  and  _385
REMARK  159  A    between atoms: _384  and  _387
REMARK  160  A    between atoms: _387  and  _388
REMARK  161  A    between atoms: _388  and  _389
REMARK  162  A    between atoms: _391  and  _393
REMARK  163  A    between atoms: _393  and  _394
REMARK  164  A    between atoms: _393  and  _396
REMARK  165  A    between atoms: _396  and  _397
REMARK  166  A    between atoms: _400  and  _402
REMARK  167  A    between atoms: _402  and  _403
REMARK  168  A    between atoms: _405  and  _407
REMARK  169  A    between atoms: _407  and  _408
REMARK  170  A    between atoms: _410  and  _412
REMARK  171  A    between atoms: _412  and  _413
REMARK  172  A    between atoms: _412  and  _415
REMARK  173  A    between atoms: _415  and  _416
REMARK  174  A    between atoms: _419  and  _421
REMARK  175  A    between atoms: _421  and  _422
REMARK  176  A    between atoms: _424  and  _426
REMARK  177  A    between atoms: _426  and  _427
REMARK  178  A    between atoms: _429  and  _431
REMARK  179  A    between atoms: _431  and  _432
REMARK  180  A    between atoms: _431  and  _434
REMARK  181  A    between atoms: _434  and  _435
REMARK  182  A    between atoms: _441  and  _443
REMARK  183  A    between atoms: _443  and  _444
REMARK  184  A    between atoms: _443  and  _446
REMARK  185  A    between atoms: _446  and  _447
REMARK  186  A    between atoms: _450  and  _452
REMARK  187  A    between atoms: _452  and  _453
REMARK  188  A    between atoms: _452  and  _455
REMARK  189  A    between atoms: _458  and  _460
REMARK  190  A    between atoms: _460  and  _461
REMARK  191  A    between atoms: _460  and  _463
REMARK  192  A    between atoms: _463  and  _464
REMARK  193  A    between atoms: _468  and  _469
REMARK  194  A    between atoms: _474  and  _476
REMARK  195  A    between atoms: _476  and  _477
REMARK  196  A    between atoms: _476  and  _479
REMARK  197  A    between atoms: _479  and  _480
REMARK  198  A    between atoms: _484  and  _485
REMARK  199  A    between atoms: _490  and  _492
REMARK  200  A    between atoms: _492  and  _493
REMARK  201  A    between atoms: _492  and  _495
REMARK  202  A    between atoms: _498  and  _500
REMARK  203  A    between atoms: _500  and  _501
REMARK  204  A    between atoms: _500  and  _503
REMARK  205  A    between atoms: _503  and  _504
REMARK  206  A    between atoms: _509  and  _511
REMARK  207  A    between atoms: _511  and  _512
REMARK  208  A    between atoms: _511  and  _514
REMARK  209  A    between atoms: _514  and  _515
REMARK  210  A    between atoms: _518  and  _520
REMARK  211  A    between atoms: _520  and  _521
REMARK  212  A    between atoms: _520  and  _523
REMARK  213  A    between atoms: _523  and  _524
REMARK  214  A    between atoms: _527  and  _529
REMARK  215  A    between atoms: _529  and  _530
REMARK  216  A    between atoms: _532  and  _534
REMARK  217  A    between atoms: _534  and  _535
REMARK  218  A    between atoms: _534  and  _537
REMARK  219  A    between atoms: _537  and  _538
REMARK  220  A    between atoms: _538  and  _539
REMARK  221  A    between atoms: _539  and  _540
REMARK  222  A    between atoms: _549  and  _551
REMARK  223  A    between atoms: _551  and  _552
REMARK  224  A    between atoms: _551  and  _554
REMARK  225  A    between atoms: _554  and  _555
REMARK                            x       y       z     vdW  Elec       q    Type
REMARK                         _______ _______ _______ _____ _____    ______ ____
ROOT
ATOM      1  C   GLY A   5      17.103  18.512  14.221  0.00  0.00    +0.243 C 
ATOM      2  N   ILE A   6      17.865  19.605  14.265  0.00  0.00    -0.297 N 
ATOM      3  H   ILE A   6      18.018  20.085  15.175  0.00  0.00    +0.150 HD
ATOM      4  O   GLY A   5      16.899  17.883  13.172  0.00  0.00    -0.273 OA
ENDROOT
BRANCH   2   5
ATOM      5  CA  ILE A   6      18.484  20.135  13.068  0.00  0.00    +0.149 C 
BRANCH   5   6
ATOM      6  C   ILE A   6      19.333  19.126  12.360  0.00  0.00    +0.241 C 
ATOM      7  N   GLY A   7      20.048  18.267  13.104  0.00  0.00    -0.295 N 
ATOM      8  H   GLY A   7      19.884  18.229  14.130  0.00  0.00    +0.150 HD
ATOM      9  O   ILE A   6      19.471  19.144  11.119  0.00  0.00    -0.273 OA
BRANCH   7  10
ATOM     10  CA  GLY A   7      21.036  17.397  12.520  0.00  0.00    +0.176 C 
BRANCH  10  11
ATOM     11  C   GLY A   7      20.622  15.997  12.256  0.00  0.00    +0.243 C 
ATOM     12  N   GLY A   8      19.445  15.586  12.697  0.00  0.00    -0.295 N 
ATOM     13  H   GLY A   8      18.799  16.283  13.120  0.00  0.00    +0.150 HD
ATOM     14  O   GLY A   7      21.379  15.219  11.650  0.00  0.00    -0.273 OA
BRANCH  12  15
ATOM     15  CA  GLY A   8      19.015  14.190  12.613  0.00  0.00    +0.176 C 
BRANCH  15  16
ATOM     16  C   GLY A   8      18.257  13.781  13.865  0.00  0.00    +0.243 C 
ATOM     17  O   GLY A   8      17.714  14.584  14.565  0.00  0.00    -0.273 OA
ATOM     18  N   PHE A   9      18.232  12.500  14.107  0.00  0.00    -0.297 N 
ATOM     19  H   PHE A   9      18.821  11.882  13.513  0.00  0.00    +0.150 HD
BRANCH  18  20
ATOM     20  CA  PHE A   9      17.442  11.882  15.144  0.00  0.00    +0.153 C 
BRANCH  20  21
ATOM     21  C   PHE A   9      18.309  11.301  16.241  0.00  0.00    +0.241 C 
ATOM     22  N   ILE A  10      17.800  11.337  17.465  0.00  0.00    -0.298 N 
ATOM     23  H   ILE A  10      16.926  11.878  17.622  0.00  0.00    +0.150 HD
ATOM     24  O   PHE A   9      19.371  10.770  15.973  0.00  0.00    -0.273 OA
BRANCH  22  25
ATOM     25  CA  ILE A  10      18.391  10.674  18.568  0.00  0.00    +0.137 C 
BRANCH  25  26
ATOM     26  C   ILE A  10      17.322   9.920  19.381  0.00  0.00    +0.227 C 
ATOM     27  O   ILE A  10      16.151  10.265  19.382  0.00  0.00    -0.286 OA
ENDBRANCH  25  26
BRANCH  25  28
ATOM     28  CB  ILE A  10      19.153  11.648  19.501  0.00  0.00    +0.026 C 
ATOM     29  CG2 ILE A  10      20.290  12.362  18.710  0.00  0.00    +0.002 C 
BRANCH  28  30
ATOM     30  CG1 ILE A  10      18.263  12.619  20.234  0.00  0.00    +0.002 C 
ATOM     31  CD1 ILE A  10      18.921  13.458  21.323  0.00  0.00    +0.000 C 
ENDBRANCH  28  30
ENDBRANCH  25  28
ENDBRANCH  22  25
ENDBRANCH  20  21
BRANCH  20  32
ATOM     32  CB  PHE A   9      16.596  10.716  14.566  0.00  0.00    +0.055 C 
BRANCH  32  33
ATOM     33  CG  PHE A   9      15.625  11.282  13.556  0.00  0.00    -0.020 A 
ATOM     34  CD2 PHE A   9      14.390  11.710  13.973  0.00  0.00    -0.004 A 
ATOM     35  CE2 PHE A   9      13.502  12.270  13.057  0.00  0.00    -0.000 A 
ATOM     36  CZ  PHE A   9      13.907  12.409  11.735  0.00  0.00    -0.000 A 
ATOM     37  CE1 PHE A   9      15.141  11.946  11.287  0.00  0.00    -0.000 A 
ATOM     38  CD1 PHE A   9      16.025  11.385  12.219  0.00  0.00    -0.004 A 
ENDBRANCH  32  33
ENDBRANCH  20  32
ENDBRANCH  18  20
ENDBRANCH  15  16
ENDBRANCH  12  15
ENDBRANCH  10  11
ENDBRANCH   7  10
ENDBRANCH   5   6
BRANCH   5  39
ATOM     39  CB  ILE A   6      19.419  21.325  13.419  0.00  0.00    +0.027 C 
ATOM     40  CG2 ILE A   6      20.633  21.378  12.539  0.00  0.00    +0.002 C 
BRANCH  39  41
ATOM     41  CG1 ILE A   6      18.502  22.492  13.385  0.00  0.00    +0.002 C 
ATOM     42  CD1 ILE A   6      17.892  23.042  12.139  0.00  0.00    +0.000 C 
ENDBRANCH  39  41
ENDBRANCH   5  39
ENDBRANCH   2   5
BRANCH   1  43
ATOM     43  CA  GLY A   5      16.467  18.112  15.532  0.00  0.00    +0.176 C 
BRANCH  43  46
ATOM     44  C   GLY A   4      14.882  16.367  16.010  0.00  0.00    +0.243 C 
ATOM     45  O   GLY A   4      14.179  17.079  16.699  0.00  0.00    -0.273 OA
ATOM     46  N   GLY A   5      16.021  16.758  15.478  0.00  0.00    -0.295 N 
ATOM     47  H   GLY A   5      16.618  16.053  15.000  0.00  0.00    +0.150 HD
BRANCH  44  48
ATOM     48  CA  GLY A   4      14.534  14.918  15.707  0.00  0.00    +0.176 C 
BRANCH  48  51
ATOM     49  C   ILE A   3      14.180  13.293  17.455  0.00  0.00    +0.241 C 
ATOM     50  O   ILE A   3      15.251  12.738  17.246  0.00  0.00    -0.273 OA
ATOM     51  N   GLY A   4      13.761  14.336  16.807  0.00  0.00    -0.295 N 
ATOM     52  H   GLY A   4      12.854  14.769  17.075  0.00  0.00    +0.150 HD
BRANCH  49  53
ATOM     53  CA  ILE A   3      13.224  12.799  18.546  0.00  0.00    +0.149 C 
BRANCH  53  55
ATOM     54  C   MET A   2      12.550  10.494  18.781  0.00  0.00    +0.241 C 
ATOM     55  N   ILE A   3      13.523  11.384  18.811  0.00  0.00    -0.297 N 
ATOM     56  H   ILE A   3      14.497  11.086  19.021  0.00  0.00    +0.150 HD
ATOM     57  O   MET A   2      11.370  10.763  18.597  0.00  0.00    -0.273 OA
BRANCH  54  58
ATOM     58  CA  MET A   2      12.913   9.049  19.005  0.00  0.00    +0.149 C 
BRANCH  58  61
ATOM     59  C   LYS A   1      12.327   8.265  21.251  0.00  0.00    +0.238 C 
ATOM     60  O   LYS A   1      13.480   8.357  21.662  0.00  0.00    -0.274 OA
ATOM     61  N   MET A   2      12.011   8.474  20.007  0.00  0.00    -0.297 N 
ATOM     62  H   MET A   2      11.051   8.215  19.702  0.00  0.00    +0.150 HD
BRANCH  59  63
ATOM     63  CA  LYS A   1      11.225   7.869  22.210  0.00  0.00    +0.145 C 
BRANCH  63  64
ATOM     64  N   LYS A   1      11.723   6.866  23.128  0.00  0.00    -0.238 NA
ATOM     65  H   LYS A   1      12.727   6.864  23.400  0.00  0.00    +0.142 HD
ENDBRANCH  63  64
BRANCH  63  66
ATOM     66  CB  LYS A   1      10.677   9.091  22.950  0.00  0.00    +0.026 C 
BRANCH  66  67
ATOM     67  CG  LYS A   1       9.860  10.061  22.069  0.00  0.00    -0.000 C 
BRANCH  67  68
ATOM     68  CD  LYS A   1       9.217  11.134  22.844  0.00  0.00    -0.024 C 
BRANCH  68  69
ATOM     69  CE  LYS A   1       8.533  12.067  21.846  0.00  0.00    -0.086 C 
BRANCH  69  70
ATOM     70  NZ  LYS A   1       7.299  11.472  21.333  0.00  0.00    +0.380 N 
ATOM     71  HZ1 LYS A   1       6.647  11.293  22.123  0.00  0.00    -0.089 HD
ATOM     72  HZ2 LYS A   1       7.521  10.576  20.855  0.00  0.00    -0.089 HD
ATOM     73  HZ3 LYS A   1       6.855  12.126  20.658  0.00  0.00    -0.089 HD
ENDBRANCH  69  70
ENDBRANCH  68  69
ENDBRANCH  67  68
ENDBRANCH  66  67
ENDBRANCH  63  66
ENDBRANCH  59  63
ENDBRANCH  58  61
BRANCH  58  74
ATOM     74  CB  MET A   2      12.942   8.187  17.748  0.00  0.00    +0.041 C 
BRANCH  74  75
ATOM     75  CG  MET A   2      13.699   8.799  16.595  0.00  0.00    +0.060 C 
BRANCH  75  76
ATOM     76  SD  MET A   2      13.937   7.648  15.214  0.00  0.00    -0.139 S 
ATOM     77  CE  MET A   2      15.360   6.753  15.831  0.00  0.00    +0.069 C 
ENDBRANCH  75  76
ENDBRANCH  74  75
ENDBRANCH  58  74
ENDBRANCH  54  58
ENDBRANCH  53  55
BRANCH  53  78
ATOM     78  CB  ILE A   3      13.353  13.648  19.797  0.00  0.00    +0.027 C 
ATOM     79  CG2 ILE A   3      12.263  13.286  20.790  0.00  0.00    +0.002 C 
BRANCH  78  80
ATOM     80  CG1 ILE A   3      14.705  13.603  20.432  0.00  0.00    +0.002 C 
ATOM     81  CD1 ILE A   3      14.928  14.594  21.563  0.00  0.00    +0.000 C 
ENDBRANCH  78  80
ENDBRANCH  53  78
ENDBRANCH  49  53
ENDBRANCH  48  51
ENDBRANCH  44  48
ENDBRANCH  43  46
ENDBRANCH   1  43
TORSDOF 36
REMARK  Name = ../refined-set-2016/3bva/3bva_pocket.pdb
REMARK  225 active torsions:
REMARK  status: ('A' for Active; 'I' for Inactive)
REMARK    1  A    between atoms: _1  and  _3
REMARK    2  A    between atoms: _3  and  _4
REMARK    3  A    between atoms: _3  and  _6
REMARK    4  A    between atoms: _6  and  _7
REMARK    5  A    between atoms: _7  and  _8
REMARK    6  A    between atoms: _8  and  _9
REMARK    7  A    between atoms: _18  and  _20
REMARK    8  A    between atoms: _20  and  _21
REMARK    9  A    between atoms: _20  and  _23
REMARK   10  A    between atoms: _23  and  _24
REMARK   11  A    between atoms: _27  and  _29
REMARK   12  A    between atoms: _29  and  _30
REMARK   13  A    between atoms: _29  and  _32
REMARK   14  A    between atoms: _32  and  _33
REMARK   15  A    between atoms: _38  and  _40
REMARK   16  A    between atoms: _40  and  _41
REMARK   17  A    between atoms: _40  and  _43
REMARK   18  A    between atoms: _43  and  _44
REMARK   19  A    between atoms: _47  and  _49
REMARK   20  A    between atoms: _49  and  _50
REMARK   21  A    between atoms: _52  and  _54
REMARK   22  A    between atoms: _54  and  _55
REMARK   23  A    between atoms: _58  and  _60
REMARK   24  A    between atoms: _60  and  _61
REMARK   25  A    between atoms: _60  and  _63
REMARK   26  A    between atoms: _63  and  _64
REMARK   27  A    between atoms: _67  and  _69
REMARK   28  A    between atoms: _69  and  _70
REMARK   29  A    between atoms: _69  and  _72
REMARK   30  A    between atoms: _72  and  _73
REMARK   31  A    between atoms: _76  and  _78
REMARK   32  A    between atoms: _78  and  _79
REMARK   33  A    between atoms: _78  and  _81
REMARK   34  A    between atoms: _81  and  _82
REMARK   35  A    between atoms: _85  and  _87
REMARK   36  A    between atoms: _87  and  _88
REMARK   37  A    between atoms: _87  and  _90
REMARK   38  A    between atoms: _93  and  _95
REMARK   39  A    between atoms: _95  and  _96
REMARK   40  A    between atoms: _95  and  _98
REMARK   41  A    between atoms: _98  and  _99
REMARK   42  A    between atoms: _99  and  _100
REMARK   43  A    between atoms: _100  and  _101
REMARK   44  A    between atoms: _101  and  _102
REMARK   45  A    between atoms: _106  and  _108
REMARK   46  A    between atoms: _108  and  _109
REMARK   47  A    between atoms: _108  and  _111
REMARK   48  A    between atoms: _111  and  _112
REMARK   49  A    between atoms: _112  and  _113
REMARK   50  A    between atoms: _115  and  _117
REMARK   51  A    between atoms: _117  and  _118
REMARK   52  A    between atoms: _117  and  _120
REMARK   53  A    between atoms: _120  and  _121
REMARK   54  A    between atoms: _124  and  _126
REMARK   55  A    between atoms: _126  and  _127
REMARK   56  A    between atoms: _129  and  _131
REMARK   57  A    between atoms: _131  and  _132
REMARK   58  A    between atoms: _134  and  _136
REMARK   59  A    between atoms: _136  and  _137
REMARK   60  A    between atoms: _136  and  _139
REMARK   61  A    between atoms: _139  and  _140
REMARK   62  A    between atoms: _143  and  _145
REMARK   63  A    between atoms: _145  and  _146
REMARK   64  A    between atoms: _148  and  _150
REMARK   65  A    between atoms: _150  and  _151
REMARK   66  A    between atoms: _153  and  _155
REMARK   67  A    between atoms: _155  and  _156
REMARK   68  A    between atoms: _155  and  _158
REMARK   69  A    between atoms: _158  and  _159
REMARK   70  A    between atoms: _165  and  _167
REMARK   71  A    between atoms: _167  and  _168
REMARK   72  A    between atoms: _167  and  _170
REMARK   73  A    between atoms: _170  and  _171
REMARK   74  A    between atoms: _174  and  _176
REMARK   75  A    between atoms: _176  and  _177
REMARK   76  A    between atoms: _176  and  _179
REMARK   77  A    between atoms: _182  and  _184
REMARK   78  A    between atoms: _184  and  _185
REMARK   79  A    between atoms: _184  and  _187
REMARK   80  A    between atoms: _187  and  _188
REMARK   81  A    between atoms: _191  and  _193
REMARK   82  A    between atoms: _193  and  _194
REMARK   83  A    between atoms: _193  and  _196
REMARK   84  A    between atoms: _196  and  _197
REMARK   85  A    between atoms: _201  and  _202
REMARK   86  A    between atoms: _207  and  _209
REMARK   87  A    between atoms: _209  and  _210
REMARK   88  A    between atoms: _209  and  _212
REMARK   89  A    between atoms: _215  and  _217
REMARK   90  A    between atoms: _217  and  _218
REMARK   91  A    between atoms: _217  and  _220
REMARK   92  A    between atoms: _220  and  _221
REMARK   93  A    between atoms: _226  and  _228
REMARK   94  A    between atoms: _228  and  _229
REMARK   95  A    between atoms: _228  and  _231
REMARK   96  A    between atoms: _231  and  _232
REMARK   97  A    between atoms: _235  and  _237
REMARK   98  A    between atoms: _237  and  _238
REMARK   99  A    between atoms: _240  and  _242
REMARK  100  A    between atoms: _242  and  _243
REMARK  101  A    between atoms: _242  and  _245
REMARK  102  A    between atoms: _245  and  _246
REMARK  103  A    between atoms: _246  and  _247
REMARK  104  A    between atoms: _247  and  _248
REMARK  105  A    between atoms: _257  and  _259
REMARK  106  A    between atoms: _259  and  _260
REMARK  107  A    between atoms: _259  and  _262
REMARK  108  A    between atoms: _262  and  _263
REMARK  109  A    between atoms: _268  and  _270
REMARK  110  A    between atoms: _270  and  _271
REMARK  111  A    between atoms: _270  and  _273
REMARK  112  A    between atoms: _273  and  _274
REMARK  113  A    between atoms: _274  and  _275
REMARK  114  A    between atoms: _275  and  _276
REMARK  115  A    between atoms: _285  and  _287
REMARK  116  A    between atoms: _287  and  _288
REMARK  117  A    between atoms: _287  and  _290
REMARK  118  A    between atoms: _290  and  _291
REMARK  119  A    between atoms: _294  and  _296
REMARK  120  A    between atoms: _296  and  _297
REMARK  121  A    between atoms: _296  and  _299
REMARK  122  A    between atoms: _299  and  _300
REMARK  123  A    between atoms: _303  and  _305
REMARK  124  A    between atoms: _305  and  _306
REMARK  125  A    between atoms: _305  and  _308
REMARK  126  A    between atoms: _308  and  _309
REMARK  127  A    between atoms: _314  and  _316
REMARK  128  A    between atoms: _316  and  _317
REMARK  129  A    between atoms: _316  and  _319
REMARK  130  A    between atoms: _319  and  _320
REMARK  131  A    between atoms: _323  and  _325
REMARK  132  A    between atoms: _325  and  _326
REMARK  133  A    between atoms: _328  and  _330
REMARK  134  A    between atoms: _330  and  _331
REMARK  135  A    between atoms: _334  and  _336
REMARK  136  A    between atoms: _336  and  _337
REMARK  137  A    between atoms: _336  and  _339
REMARK  138  A    between atoms: _339  and  _340
REMARK  139  A    between atoms: _343  and  _345
REMARK  140  A    between atoms: _345  and  _346
REMARK  141  A    between atoms: _345  and  _348
REMARK  142  A    between atoms: _348  and  _349
REMARK  143  A    between atoms: _352  and  _354
REMARK  144  A    between atoms: _354  and  _355
REMARK  145  A    between atoms: _354  and  _357
REMARK  146  A    between atoms: _357  and  _358
REMARK  147  A    between atoms: _361  and  _363
REMARK  148  A    between atoms: _363  and  _364
REMARK  149  A    between atoms: _363  and  _366
REMARK  150  A    between atoms: _369  and  _371
REMARK  151  A    between atoms: _371  and  _372
REMARK  152  A    between atoms: _371  and  _374
REMARK  153  A    between atoms: _374  and  _375
REMARK  154  A    between atoms: _375  and  _376
REMARK  155  A    between atoms: _376  and  _377
REMARK  156  A    between atoms: _377  and  _378
REMARK  157  A    between atoms: _382  and  _384
REMARK  158  A    between atoms: _384  and  _385
REMARK  159  A    between atoms: _384  and  _387
REMARK  160  A    between atoms: _387  and  _388
REMARK  161  A    between atoms: _388  and  _389
REMARK  162  A    between atoms: _391  and  _393
REMARK  163  A    between atoms: _393  and  _394
REMARK  164  A    between atoms: _393  and  _396
REMARK  165  A    between atoms: _396  and  _397
REMARK  166  A    between atoms: _400  and  _402
REMARK  167  A    between atoms: _402  and  _403
REMARK  168  A    between atoms: _405  and  _407
REMARK  169  A    between atoms: _407  and  _408
REMARK  170  A    between atoms: _410  and  _412
REMARK  171  A    between atoms: _412  and  _413
REMARK  172  A    between atoms: _412  and  _415
REMARK  173  A    between atoms: _415  and  _416
REMARK  174  A    between atoms: _419  and  _421
REMARK  175  A    between atoms: _421  and  _422
REMARK  176  A    between atoms: _424  and  _426
REMARK  177  A    between atoms: _426  and  _427
REMARK  178  A    between atoms: _429  and  _431
REMARK  179  A    between atoms: _431  and  _432
REMARK  180  A    between atoms: _431  and  _434
REMARK  181  A    between atoms: _434  and  _435
REMARK  182  A    between atoms: _441  and  _443
REMARK  183  A    between atoms: _443  and  _444
REMARK  184  A    between atoms: _443  and  _446
REMARK  185  A    between atoms: _446  and  _447
REMARK  186  A    between atoms: _450  and  _452
REMARK  187  A    between atoms: _452  and  _453
REMARK  188  A    between atoms: _452  and  _455
REMARK  189  A    between atoms: _458  and  _460
REMARK  190  A    between atoms: _460  and  _461
REMARK  191  A    between atoms: _460  and  _463
REMARK  192  A    between atoms: _463  and  _464
REMARK  193  A    between atoms: _468  and  _469
REMARK  194  A    between atoms: _474  and  _476
REMARK  195  A    between atoms: _476  and  _477
REMARK  196  A    between atoms: _476  and  _479
REMARK  197  A    between atoms: _479  and  _480
REMARK  198  A    between atoms: _484  and  _485
REMARK  199  A    between atoms: _490  and  _492
REMARK  200  A    between atoms: _492  and  _493
REMARK  201  A    between atoms: _492  and  _495
REMARK  202  A    between atoms: _498  and  _500
REMARK  203  A    between atoms: _500  and  _501
REMARK  204  A    between atoms: _500  and  _503
REMARK  205  A    between atoms: _503  and  _504
REMARK  206  A    between atoms: _509  and  _511
REMARK  207  A    between atoms: _511  and  _512
REMARK  208  A    between atoms: _511  and  _514
REMARK  209  A    between atoms: _514  and  _515
REMARK  210  A    between atoms: _518  and  _520
REMARK  211  A    between atoms: _520  and  _521
REMARK  212  A    between atoms: _520  and  _523
REMARK  213  A    between atoms: _523  and  _524
REMARK  214  A    between atoms: _527  and  _529
REMARK  215  A    between atoms: _529  and  _530
REMARK  216  A    between atoms: _532  and  _534
REMARK  217  A    between atoms: _534  and  _535
REMARK  218  A    between atoms: _534  and  _537
REMARK  219  A    between atoms: _537  and  _538
REMARK  220  A    between atoms: _538  and  _539
REMARK  221  A    between atoms: _539  and  _540
REMARK  222  A    between atoms: _549  and  _551
REMARK  223  A    between atoms: _551  and  _552
REMARK  224  A    between atoms: _551  and  _554
REMARK  225  A    between atoms: _554  and  _555
REMARK                            x       y       z     vdW  Elec       q    Type
REMARK                         _______ _______ _______ _____ _____    ______ ____
ROOT
ATOM      1  CA  VAL A   1      15.937   9.454  24.460  0.00  0.00    +0.133 C 
ENDROOT
BRANCH   1   2
ATOM      2  CB  VAL A   1      15.429  10.906  24.476  0.00  0.00    +0.023 C 
ATOM      3  CG2 VAL A   1      14.025  10.988  23.877  0.00  0.00    +0.002 C 
ATOM      4  CG1 VAL A   1      16.367  11.811  23.689  0.00  0.00    +0.002 C 
ENDBRANCH   1   2
BRANCH   1   5
ATOM      5  N   VAL A   1      15.971   8.895  23.128  0.00  0.00    -0.239 NA
ATOM      6  H   VAL A   1      15.099   8.545  22.683  0.00  0.00    +0.142 HD
ENDBRANCH   1   5
BRANCH   1   7
ATOM      7  C   VAL A   1      15.089   8.547  25.360  0.00  0.00    +0.224 C 
ATOM      8  O   VAL A   1      14.314   7.688  24.855  0.00  0.00    -0.287 OA
ENDBRANCH   1   7
TORSDOF 3
REMARK  Name = ../refined-set-2016/3bva/3bva_pocket.pdb
REMARK  225 active torsions:
REMARK  status: ('A' for Active; 'I' for Inactive)
REMARK    1  A    between atoms: _1  and  _3
REMARK    2  A    between atoms: _3  and  _4
REMARK    3  A    between atoms: _3  and  _6
REMARK    4  A    between atoms: _6  and  _7
REMARK    5  A    between atoms: _7  and  _8
REMARK    6  A    between atoms: _8  and  _9
REMARK    7  A    between atoms: _18  and  _20
REMARK    8  A    between atoms: _20  and  _21
REMARK    9  A    between atoms: _20  and  _23
REMARK   10  A    between atoms: _23  and  _24
REMARK   11  A    between atoms: _27  and  _29
REMARK   12  A    between atoms: _29  and  _30
REMARK   13  A    between atoms: _29  and  _32
REMARK   14  A    between atoms: _32  and  _33
REMARK   15  A    between atoms: _38  and  _40
REMARK   16  A    between atoms: _40  and  _41
REMARK   17  A    between atoms: _40  and  _43
REMARK   18  A    between atoms: _43  and  _44
REMARK   19  A    between atoms: _47  and  _49
REMARK   20  A    between atoms: _49  and  _50
REMARK   21  A    between atoms: _52  and  _54
REMARK   22  A    between atoms: _54  and  _55
REMARK   23  A    between atoms: _58  and  _60
REMARK   24  A    between atoms: _60  and  _61
REMARK   25  A    between atoms: _60  and  _63
REMARK   26  A    between atoms: _63  and  _64
REMARK   27  A    between atoms: _67  and  _69
REMARK   28  A    between atoms: _69  and  _70
REMARK   29  A    between atoms: _69  and  _72
REMARK   30  A    between atoms: _72  and  _73
REMARK   31  A    between atoms: _76  and  _78
REMARK   32  A    between atoms: _78  and  _79
REMARK   33  A    between atoms: _78  and  _81
REMARK   34  A    between atoms: _81  and  _82
REMARK   35  A    between atoms: _85  and  _87
REMARK   36  A    between atoms: _87  and  _88
REMARK   37  A    between atoms: _87  and  _90
REMARK   38  A    between atoms: _93  and  _95
REMARK   39  A    between atoms: _95  and  _96
REMARK   40  A    between atoms: _95  and  _98
REMARK   41  A    between atoms: _98  and  _99
REMARK   42  A    between atoms: _99  and  _100
REMARK   43  A    between atoms: _100  and  _101
REMARK   44  A    between atoms: _101  and  _102
REMARK   45  A    between atoms: _106  and  _108
REMARK   46  A    between atoms: _108  and  _109
REMARK   47  A    between atoms: _108  and  _111
REMARK   48  A    between atoms: _111  and  _112
REMARK   49  A    between atoms: _112  and  _113
REMARK   50  A    between atoms: _115  and  _117
REMARK   51  A    between atoms: _117  and  _118
REMARK   52  A    between atoms: _117  and  _120
REMARK   53  A    between atoms: _120  and  _121
REMARK   54  A    between atoms: _124  and  _126
REMARK   55  A    between atoms: _126  and  _127
REMARK   56  A    between atoms: _129  and  _131
REMARK   57  A    between atoms: _131  and  _132
REMARK   58  A    between atoms: _134  and  _136
REMARK   59  A    between atoms: _136  and  _137
REMARK   60  A    between atoms: _136  and  _139
REMARK   61  A    between atoms: _139  and  _140
REMARK   62  A    between atoms: _143  and  _145
REMARK   63  A    between atoms: _145  and  _146
REMARK   64  A    between atoms: _148  and  _150
REMARK   65  A    between atoms: _150  and  _151
REMARK   66  A    between atoms: _153  and  _155
REMARK   67  A    between atoms: _155  and  _156
REMARK   68  A    between atoms: _155  and  _158
REMARK   69  A    between atoms: _158  and  _159
REMARK   70  A    between atoms: _165  and  _167
REMARK   71  A    between atoms: _167  and  _168
REMARK   72  A    between atoms: _167  and  _170
REMARK   73  A    between atoms: _170  and  _171
REMARK   74  A    between atoms: _174  and  _176
REMARK   75  A    between atoms: _176  and  _177
REMARK   76  A    between atoms: _176  and  _179
REMARK   77  A    between atoms: _182  and  _184
REMARK   78  A    between atoms: _184  and  _185
REMARK   79  A    between atoms: _184  and  _187
REMARK   80  A    between atoms: _187  and  _188
REMARK   81  A    between atoms: _191  and  _193
REMARK   82  A    between atoms: _193  and  _194
REMARK   83  A    between atoms: _193  and  _196
REMARK   84  A    between atoms: _196  and  _197
REMARK   85  A    between atoms: _201  and  _202
REMARK   86  A    between atoms: _207  and  _209
REMARK   87  A    between atoms: _209  and  _210
REMARK   88  A    between atoms: _209  and  _212
REMARK   89  A    between atoms: _215  and  _217
REMARK   90  A    between atoms: _217  and  _218
REMARK   91  A    between atoms: _217  and  _220
REMARK   92  A    between atoms: _220  and  _221
REMARK   93  A    between atoms: _226  and  _228
REMARK   94  A    between atoms: _228  and  _229
REMARK   95  A    between atoms: _228  and  _231
REMARK   96  A    between atoms: _231  and  _232
REMARK   97  A    between atoms: _235  and  _237
REMARK   98  A    between atoms: _237  and  _238
REMARK   99  A    between atoms: _240  and  _242
REMARK  100  A    between atoms: _242  and  _243
REMARK  101  A    between atoms: _242  and  _245
REMARK  102  A    between atoms: _245  and  _246
REMARK  103  A    between atoms: _246  and  _247
REMARK  104  A    between atoms: _247  and  _248
REMARK  105  A    between atoms: _257  and  _259
REMARK  106  A    between atoms: _259  and  _260
REMARK  107  A    between atoms: _259  and  _262
REMARK  108  A    between atoms: _262  and  _263
REMARK  109  A    between atoms: _268  and  _270
REMARK  110  A    between atoms: _270  and  _271
REMARK  111  A    between atoms: _270  and  _273
REMARK  112  A    between atoms: _273  and  _274
REMARK  113  A    between atoms: _274  and  _275
REMARK  114  A    between atoms: _275  and  _276
REMARK  115  A    between atoms: _285  and  _287
REMARK  116  A    between atoms: _287  and  _288
REMARK  117  A    between atoms: _287  and  _290
REMARK  118  A    between atoms: _290  and  _291
REMARK  119  A    between atoms: _294  and  _296
REMARK  120  A    between atoms: _296  and  _297
REMARK  121  A    between atoms: _296  and  _299
REMARK  122  A    between atoms: _299  and  _300
REMARK  123  A    between atoms: _303  and  _305
REMARK  124  A    between atoms: _305  and  _306
REMARK  125  A    between atoms: _305  and  _308
REMARK  126  A    between atoms: _308  and  _309
REMARK  127  A    between atoms: _314  and  _316
REMARK  128  A    between atoms: _316  and  _317
REMARK  129  A    between atoms: _316  and  _319
REMARK  130  A    between atoms: _319  and  _320
REMARK  131  A    between atoms: _323  and  _325
REMARK  132  A    between atoms: _325  and  _326
REMARK  133  A    between atoms: _328  and  _330
REMARK  134  A    between atoms: _330  and  _331
REMARK  135  A    between atoms: _334  and  _336
REMARK  136  A    between atoms: _336  and  _337
REMARK  137  A    between atoms: _336  and  _339
REMARK  138  A    between atoms: _339  and  _340
REMARK  139  A    between atoms: _343  and  _345
REMARK  140  A    between atoms: _345  and  _346
REMARK  141  A    between atoms: _345  and  _348
REMARK  142  A    between atoms: _348  and  _349
REMARK  143  A    between atoms: _352  and  _354
REMARK  144  A    between atoms: _354  and  _355
REMARK  145  A    between atoms: _354  and  _357
REMARK  146  A    between atoms: _357  and  _358
REMARK  147  A    between atoms: _361  and  _363
REMARK  148  A    between atoms: _363  and  _364
REMARK  149  A    between atoms: _363  and  _366
REMARK  150  A    between atoms: _369  and  _371
REMARK  151  A    between atoms: _371  and  _372
REMARK  152  A    between atoms: _371  and  _374
REMARK  153  A    between atoms: _374  and  _375
REMARK  154  A    between atoms: _375  and  _376
REMARK  155  A    between atoms: _376  and  _377
REMARK  156  A    between atoms: _377  and  _378
REMARK  157  A    between atoms: _382  and  _384
REMARK  158  A    between atoms: _384  and  _385
REMARK  159  A    between atoms: _384  and  _387
REMARK  160  A    between atoms: _387  and  _388
REMARK  161  A    between atoms: _388  and  _389
REMARK  162  A    between atoms: _391  and  _393
REMARK  163  A    between atoms: _393  and  _394
REMARK  164  A    between atoms: _393  and  _396
REMARK  165  A    between atoms: _396  and  _397
REMARK  166  A    between atoms: _400  and  _402
REMARK  167  A    between atoms: _402  and  _403
REMARK  168  A    between atoms: _405  and  _407
REMARK  169  A    between atoms: _407  and  _408
REMARK  170  A    between atoms: _410  and  _412
REMARK  171  A    between atoms: _412  and  _413
REMARK  172  A    between atoms: _412  and  _415
REMARK  173  A    between atoms: _415  and  _416
REMARK  174  A    between atoms: _419  and  _421
REMARK  175  A    between atoms: _421  and  _422
REMARK  176  A    between atoms: _424  and  _426
REMARK  177  A    between atoms: _426  and  _427
REMARK  178  A    between atoms: _429  and  _431
REMARK  179  A    between atoms: _431  and  _432
REMARK  180  A    between atoms: _431  and  _434
REMARK  181  A    between atoms: _434  and  _435
REMARK  182  A    between atoms: _441  and  _443
REMARK  183  A    between atoms: _443  and  _444
REMARK  184  A    between atoms: _443  and  _446
REMARK  185  A    between atoms: _446  and  _447
REMARK  186  A    between atoms: _450  and  _452
REMARK  187  A    between atoms: _452  and  _453
REMARK  188  A    between atoms: _452  and  _455
REMARK  189  A    between atoms: _458  and  _460
REMARK  190  A    between atoms: _460  and  _461
REMARK  191  A    between atoms: _460  and  _463
REMARK  192  A    between atoms: _463  and  _464
REMARK  193  A    between atoms: _468  and  _469
REMARK  194  A    between atoms: _474  and  _476
REMARK  195  A    between atoms: _476  and  _477
REMARK  196  A    between atoms: _476  and  _479
REMARK  197  A    between atoms: _479  and  _480
REMARK  198  A    between atoms: _484  and  _485
REMARK  199  A    between atoms: _490  and  _492
REMARK  200  A    between atoms: _492  and  _493
REMARK  201  A    between atoms: _492  and  _495
REMARK  202  A    between atoms: _498  and  _500
REMARK  203  A    between atoms: _500  and  _501
REMARK  204  A    between atoms: _500  and  _503
REMARK  205  A    between atoms: _503  and  _504
REMARK  206  A    between atoms: _509  and  _511
REMARK  207  A    between atoms: _511  and  _512
REMARK  208  A    between atoms: _511  and  _514
REMARK  209  A    between atoms: _514  and  _515
REMARK  210  A    between atoms: _518  and  _520
REMARK  211  A    between atoms: _520  and  _521
REMARK  212  A    between atoms: _520  and  _523
REMARK  213  A    between atoms: _523  and  _524
REMARK  214  A    between atoms: _527  and  _529
REMARK  215  A    between atoms: _529  and  _530
REMARK  216  A    between atoms: _532  and  _534
REMARK  217  A    between atoms: _534  and  _535
REMARK  218  A    between atoms: _534  and  _537
REMARK  219  A    between atoms: _537  and  _538
REMARK  220  A    between atoms: _538  and  _539
REMARK  221  A    between atoms: _539  and  _540
REMARK  222  A    between atoms: _549  and  _551
REMARK  223  A    between atoms: _551  and  _552
REMARK  224  A    between atoms: _551  and  _554
REMARK  225  A    between atoms: _554  and  _555
REMARK                            x       y       z     vdW  Elec       q    Type
REMARK                         _______ _______ _______ _____ _____    ______ ____
ROOT
ATOM      1  CA  LEU A   1      13.034  13.337  28.000  0.00  0.00    +0.133 C 
ENDROOT
BRANCH   1   2
ATOM      2  N   LEU A   1      12.215  14.223  28.784  0.00  0.00    -0.239 NA
ATOM      3  H   LEU A   1      12.148  15.220  28.494  0.00  0.00    +0.142 HD
ENDBRANCH   1   2
BRANCH   1   4
ATOM      4  C   LEU A   1      14.490  13.500  28.411  0.00  0.00    +0.224 C 
ATOM      5  O   LEU A   1      14.897  14.646  28.602  0.00  0.00    -0.287 OA
ENDBRANCH   1   4
BRANCH   1   6
ATOM      6  CB  LEU A   1      12.860  13.624  26.494  0.00  0.00    +0.025 C 
BRANCH   6   7
ATOM      7  CG  LEU A   1      11.442  13.697  25.968  0.00  0.00    +0.002 C 
ATOM      8  CD2 LEU A   1      10.641  12.441  26.290  0.00  0.00    +0.000 C 
ATOM      9  CD1 LEU A   1      11.407  13.979  24.471  0.00  0.00    +0.000 C 
ENDBRANCH   6   7
ENDBRANCH   1   6
TORSDOF 4
REMARK  Name = ../refined-set-2016/3bva/3bva_pocket.pdb
REMARK  225 active torsions:
REMARK  status: ('A' for Active; 'I' for Inactive)
REMARK    1  A    between atoms: _1  and  _3
REMARK    2  A    between atoms: _3  and  _4
REMARK    3  A    between atoms: _3  and  _6
REMARK    4  A    between atoms: _6  and  _7
REMARK    5  A    between atoms: _7  and  _8
REMARK    6  A    between atoms: _8  and  _9
REMARK    7  A    between atoms: _18  and  _20
REMARK    8  A    between atoms: _20  and  _21
REMARK    9  A    between atoms: _20  and  _23
REMARK   10  A    between atoms: _23  and  _24
REMARK   11  A    between atoms: _27  and  _29
REMARK   12  A    between atoms: _29  and  _30
REMARK   13  A    between atoms: _29  and  _32
REMARK   14  A    between atoms: _32  and  _33
REMARK   15  A    between atoms: _38  and  _40
REMARK   16  A    between atoms: _40  and  _41
REMARK   17  A    between atoms: _40  and  _43
REMARK   18  A    between atoms: _43  and  _44
REMARK   19  A    between atoms: _47  and  _49
REMARK   20  A    between atoms: _49  and  _50
REMARK   21  A    between atoms: _52  and  _54
REMARK   22  A    between atoms: _54  and  _55
REMARK   23  A    between atoms: _58  and  _60
REMARK   24  A    between atoms: _60  and  _61
REMARK   25  A    between atoms: _60  and  _63
REMARK   26  A    between atoms: _63  and  _64
REMARK   27  A    between atoms: _67  and  _69
REMARK   28  A    between atoms: _69  and  _70
REMARK   29  A    between atoms: _69  and  _72
REMARK   30  A    between atoms: _72  and  _73
REMARK   31  A    between atoms: _76  and  _78
REMARK   32  A    between atoms: _78  and  _79
REMARK   33  A    between atoms: _78  and  _81
REMARK   34  A    between atoms: _81  and  _82
REMARK   35  A    between atoms: _85  and  _87
REMARK   36  A    between atoms: _87  and  _88
REMARK   37  A    between atoms: _87  and  _90
REMARK   38  A    between atoms: _93  and  _95
REMARK   39  A    between atoms: _95  and  _96
REMARK   40  A    between atoms: _95  and  _98
REMARK   41  A    between atoms: _98  and  _99
REMARK   42  A    between atoms: _99  and  _100
REMARK   43  A    between atoms: _100  and  _101
REMARK   44  A    between atoms: _101  and  _102
REMARK   45  A    between atoms: _106  and  _108
REMARK   46  A    between atoms: _108  and  _109
REMARK   47  A    between atoms: _108  and  _111
REMARK   48  A    between atoms: _111  and  _112
REMARK   49  A    between atoms: _112  and  _113
REMARK   50  A    between atoms: _115  and  _117
REMARK   51  A    between atoms: _117  and  _118
REMARK   52  A    between atoms: _117  and  _120
REMARK   53  A    between atoms: _120  and  _121
REMARK   54  A    between atoms: _124  and  _126
REMARK   55  A    between atoms: _126  and  _127
REMARK   56  A    between atoms: _129  and  _131
REMARK   57  A    between atoms: _131  and  _132
REMARK   58  A    between atoms: _134  and  _136
REMARK   59  A    between atoms: _136  and  _137
REMARK   60  A    between atoms: _136  and  _139
REMARK   61  A    between atoms: _139  and  _140
REMARK   62  A    between atoms: _143  and  _145
REMARK   63  A    between atoms: _145  and  _146
REMARK   64  A    between atoms: _148  and  _150
REMARK   65  A    between atoms: _150  and  _151
REMARK   66  A    between atoms: _153  and  _155
REMARK   67  A    between atoms: _155  and  _156
REMARK   68  A    between atoms: _155  and  _158
REMARK   69  A    between atoms: _158  and  _159
REMARK   70  A    between atoms: _165  and  _167
REMARK   71  A    between atoms: _167  and  _168
REMARK   72  A    between atoms: _167  and  _170
REMARK   73  A    between atoms: _170  and  _171
REMARK   74  A    between atoms: _174  and  _176
REMARK   75  A    between atoms: _176  and  _177
REMARK   76  A    between atoms: _176  and  _179
REMARK   77  A    between atoms: _182  and  _184
REMARK   78  A    between atoms: _184  and  _185
REMARK   79  A    between atoms: _184  and  _187
REMARK   80  A    between atoms: _187  and  _188
REMARK   81  A    between atoms: _191  and  _193
REMARK   82  A    between atoms: _193  and  _194
REMARK   83  A    between atoms: _193  and  _196
REMARK   84  A    between atoms: _196  and  _197
REMARK   85  A    between atoms: _201  and  _202
REMARK   86  A    between atoms: _207  and  _209
REMARK   87  A    between atoms: _209  and  _210
REMARK   88  A    between atoms: _209  and  _212
REMARK   89  A    between atoms: _215  and  _217
REMARK   90  A    between atoms: _217  and  _218
REMARK   91  A    between atoms: _217  and  _220
REMARK   92  A    between atoms: _220  and  _221
REMARK   93  A    between atoms: _226  and  _228
REMARK   94  A    between atoms: _228  and  _229
REMARK   95  A    between atoms: _228  and  _231
REMARK   96  A    between atoms: _231  and  _232
REMARK   97  A    between atoms: _235  and  _237
REMARK   98  A    between atoms: _237  and  _238
REMARK   99  A    between atoms: _240  and  _242
REMARK  100  A    between atoms: _242  and  _243
REMARK  101  A    between atoms: _242  and  _245
REMARK  102  A    between atoms: _245  and  _246
REMARK  103  A    between atoms: _246  and  _247
REMARK  104  A    between atoms: _247  and  _248
REMARK  105  A    between atoms: _257  and  _259
REMARK  106  A    between atoms: _259  and  _260
REMARK  107  A    between atoms: _259  and  _262
REMARK  108  A    between atoms: _262  and  _263
REMARK  109  A    between atoms: _268  and  _270
REMARK  110  A    between atoms: _270  and  _271
REMARK  111  A    between atoms: _270  and  _273
REMARK  112  A    between atoms: _273  and  _274
REMARK  113  A    between atoms: _274  and  _275
REMARK  114  A    between atoms: _275  and  _276
REMARK  115  A    between atoms: _285  and  _287
REMARK  116  A    between atoms: _287  and  _288
REMARK  117  A    between atoms: _287  and  _290
REMARK  118  A    between atoms: _290  and  _291
REMARK  119  A    between atoms: _294  and  _296
REMARK  120  A    between atoms: _296  and  _297
REMARK  121  A    between atoms: _296  and  _299
REMARK  122  A    between atoms: _299  and  _300
REMARK  123  A    between atoms: _303  and  _305
REMARK  124  A    between atoms: _305  and  _306
REMARK  125  A    between atoms: _305  and  _308
REMARK  126  A    between atoms: _308  and  _309
REMARK  127  A    between atoms: _314  and  _316
REMARK  128  A    between atoms: _316  and  _317
REMARK  129  A    between atoms: _316  and  _319
REMARK  130  A    between atoms: _319  and  _320
REMARK  131  A    between atoms: _323  and  _325
REMARK  132  A    between atoms: _325  and  _326
REMARK  133  A    between atoms: _328  and  _330
REMARK  134  A    between atoms: _330  and  _331
REMARK  135  A    between atoms: _334  and  _336
REMARK  136  A    between atoms: _336  and  _337
REMARK  137  A    between atoms: _336  and  _339
REMARK  138  A    between atoms: _339  and  _340
REMARK  139  A    between atoms: _343  and  _345
REMARK  140  A    between atoms: _345  and  _346
REMARK  141  A    between atoms: _345  and  _348
REMARK  142  A    between atoms: _348  and  _349
REMARK  143  A    between atoms: _352  and  _354
REMARK  144  A    between atoms: _354  and  _355
REMARK  145  A    between atoms: _354  and  _357
REMARK  146  A    between atoms: _357  and  _358
REMARK  147  A    between atoms: _361  and  _363
REMARK  148  A    between atoms: _363  and  _364
REMARK  149  A    between atoms: _363  and  _366
REMARK  150  A    between atoms: _369  and  _371
REMARK  151  A    between atoms: _371  and  _372
REMARK  152  A    between atoms: _371  and  _374
REMARK  153  A    between atoms: _374  and  _375
REMARK  154  A    between atoms: _375  and  _376
REMARK  155  A    between atoms: _376  and  _377
REMARK  156  A    between atoms: _377  and  _378
REMARK  157  A    between atoms: _382  and  _384
REMARK  158  A    between atoms: _384  and  _385
REMARK  159  A    between atoms: _384  and  _387
REMARK  160  A    between atoms: _387  and  _388
REMARK  161  A    between atoms: _388  and  _389
REMARK  162  A    between atoms: _391  and  _393
REMARK  163  A    between atoms: _393  and  _394
REMARK  164  A    between atoms: _393  and  _396
REMARK  165  A    between atoms: _396  and  _397
REMARK  166  A    between atoms: _400  and  _402
REMARK  167  A    between atoms: _402  and  _403
REMARK  168  A    between atoms: _405  and  _407
REMARK  169  A    between atoms: _407  and  _408
REMARK  170  A    between atoms: _410  and  _412
REMARK  171  A    between atoms: _412  and  _413
REMARK  172  A    between atoms: _412  and  _415
REMARK  173  A    between atoms: _415  and  _416
REMARK  174  A    between atoms: _419  and  _421
REMARK  175  A    between atoms: _421  and  _422
REMARK  176  A    between atoms: _424  and  _426
REMARK  177  A    between atoms: _426  and  _427
REMARK  178  A    between atoms: _429  and  _431
REMARK  179  A    between atoms: _431  and  _432
REMARK  180  A    between atoms: _431  and  _434
REMARK  181  A    between atoms: _434  and  _435
REMARK  182  A    between atoms: _441  and  _443
REMARK  183  A    between atoms: _443  and  _444
REMARK  184  A    between atoms: _443  and  _446
REMARK  185  A    between atoms: _446  and  _447
REMARK  186  A    between atoms: _450  and  _452
REMARK  187  A    between atoms: _452  and  _453
REMARK  188  A    between atoms: _452  and  _455
REMARK  189  A    between atoms: _458  and  _460
REMARK  190  A    between atoms: _460  and  _461
REMARK  191  A    between atoms: _460  and  _463
REMARK  192  A    between atoms: _463  and  _464
REMARK  193  A    between atoms: _468  and  _469
REMARK  194  A    between atoms: _474  and  _476
REMARK  195  A    between atoms: _476  and  _477
REMARK  196  A    between atoms: _476  and  _479
REMARK  197  A    between atoms: _479  and  _480
REMARK  198  A    between atoms: _484  and  _485
REMARK  199  A    between atoms: _490  and  _492
REMARK  200  A    between atoms: _492  and  _493
REMARK  201  A    between atoms: _492  and  _495
REMARK  202  A    between atoms: _498  and  _500
REMARK  203  A    between atoms: _500  and  _501
REMARK  204  A    between atoms: _500  and  _503
REMARK  205  A    between atoms: _503  and  _504
REMARK  206  A    between atoms: _509  and  _511
REMARK  207  A    between atoms: _511  and  _512
REMARK  208  A    between atoms: _511  and  _514
REMARK  209  A    between atoms: _514  and  _515
REMARK  210  A    between atoms: _518  and  _520
REMARK  211  A    between atoms: _520  and  _521
REMARK  212  A    between atoms: _520  and  _523
REMARK  213  A    between atoms: _523  and  _524
REMARK  214  A    between atoms: _527  and  _529
REMARK  215  A    between atoms: _529  and  _530
REMARK  216  A    between atoms: _532  and  _534
REMARK  217  A    between atoms: _534  and  _535
REMARK  218  A    between atoms: _534  and  _537
REMARK  219  A    between atoms: _537  and  _538
REMARK  220  A    between atoms: _538  and  _539
REMARK  221  A    between atoms: _539  and  _540
REMARK  222  A    between atoms: _549  and  _551
REMARK  223  A    between atoms: _551  and  _552
REMARK  224  A    between atoms: _551  and  _554
REMARK  225  A    between atoms: _554  and  _555
REMARK                            x       y       z     vdW  Elec       q    Type
REMARK                         _______ _______ _______ _____ _____    ______ ____
ROOT
ATOM      1  CA  ILE A   6      15.639  22.621  26.568  0.00  0.00    +0.149 C 
ENDROOT
BRANCH   1   4
ATOM      2  C   ASN A   5      17.819  22.355  27.641  0.00  0.00    +0.241 C 
ATOM      3  O   ASN A   5      18.058  23.561  27.584  0.00  0.00    -0.273 OA
ATOM      4  N   ILE A   6      16.687  21.810  27.231  0.00  0.00    -0.297 N 
ATOM      5  H   ILE A   6      16.529  20.792  27.376  0.00  0.00    +0.150 HD
BRANCH   2   6
ATOM      6  CA  ASN A   5      18.857  21.424  28.264  0.00  0.00    +0.158 C 
BRANCH   6   8
ATOM      7  C   VAL A   4      20.343  21.352  26.357  0.00  0.00    +0.241 C 
ATOM      8  N   ASN A   5      20.164  21.667  27.641  0.00  0.00    -0.297 N 
ATOM      9  H   ASN A   5      20.942  22.080  28.194  0.00  0.00    +0.150 HD
ATOM     10  O   VAL A   4      19.509  20.759  25.692  0.00  0.00    -0.273 OA
BRANCH   7  11
ATOM     11  CA  VAL A   4      21.674  21.798  25.720  0.00  0.00    +0.149 C 
BRANCH  11  14
ATOM     12  C   PRO A   3      23.361  20.476  24.543  0.00  0.00    +0.241 C 
ATOM     13  O   PRO A   3      24.313  21.039  25.093  0.00  0.00    -0.273 OA
ATOM     14  N   VAL A   4      22.092  20.763  24.801  0.00  0.00    -0.297 N 
ATOM     15  H   VAL A   4      21.356  20.212  24.315  0.00  0.00    +0.150 HD
BRANCH  12  19
ATOM     16  C   THR A   2      22.157  17.654  24.081  0.00  0.00    +0.246 C 
ATOM     17  O   THR A   2      22.778  17.555  25.154  0.00  0.00    -0.273 OA
ATOM     18  N   PRO A   3      22.563  18.535  23.160  0.00  0.00    -0.272 N 
ATOM     19  CA  PRO A   3      23.613  19.508  23.417  0.00  0.00    +0.152 C 
ATOM     20  CB  PRO A   3      23.670  20.321  22.105  0.00  0.00    +0.031 C 
ATOM     21  CG  PRO A   3      23.240  19.341  21.085  0.00  0.00    +0.024 C 
ATOM     22  CD  PRO A   3      22.124  18.581  21.740  0.00  0.00    +0.094 C 
BRANCH  16  23
ATOM     23  CA  THR A   2      20.947  16.804  23.772  0.00  0.00    +0.176 C 
BRANCH  23  25
ATOM     24  C   PRO A   1      21.958  14.592  23.616  0.00  0.00    +0.239 C 
ATOM     25  N   THR A   2      21.196  15.465  24.274  0.00  0.00    -0.295 N 
ATOM     26  H   THR A   2      20.766  15.178  25.176  0.00  0.00    +0.150 HD
ATOM     27  O   PRO A   1      22.431  14.808  22.515  0.00  0.00    -0.274 OA
BRANCH  24  29
ATOM     28  N   PRO A   1      21.109  12.558  24.807  0.00  0.00    -0.210 NA
ATOM     29  CA  PRO A   1      22.276  13.329  24.362  0.00  0.00    +0.149 C 
ATOM     30  CB  PRO A   1      23.020  12.300  23.504  0.00  0.00    +0.028 C 
ATOM     31  CG  PRO A   1      21.967  11.426  22.959  0.00  0.00    +0.021 C 
ATOM     32  CD  PRO A   1      20.941  11.282  24.065  0.00  0.00    +0.089 C 
ENDBRANCH  24  29
ENDBRANCH  23  25
BRANCH  23  33
ATOM     33  CB  THR A   2      19.662  17.417  24.354  0.00  0.00    +0.137 C 
ATOM     34  CG2 THR A   2      19.694  17.498  25.890  0.00  0.00    +0.034 C 
BRANCH  33  35
ATOM     35  OG1 THR A   2      19.527  18.715  23.813  0.00  0.00    -0.382 OA
ATOM     36  HG1 THR A   2      20.315  19.259  24.064  0.00  0.00    +0.210 HD
ENDBRANCH  33  35
ENDBRANCH  23  33
ENDBRANCH  16  23
ENDBRANCH  12  19
ENDBRANCH  11  14
BRANCH  11  37
ATOM     37  CB  VAL A   4      21.305  23.076  24.890  0.00  0.00    +0.027 C 
ATOM     38  CG2 VAL A   4      20.926  24.241  25.807  0.00  0.00    +0.002 C 
ATOM     39  CG1 VAL A   4      22.389  23.553  23.911  0.00  0.00    +0.002 C 
ENDBRANCH  11  37
ENDBRANCH   7  11
ENDBRANCH   6   8
BRANCH   6  40
ATOM     40  CB  ASN A   5      18.924  21.673  29.757  0.00  0.00    +0.114 C 
BRANCH  40  41
ATOM     41  CG  ASN A   5      19.848  20.757  30.523  0.00  0.00    +0.222 C 
ATOM     42  ND2 ASN A   5      20.467  21.297  31.548  0.00  0.00    -0.329 N 
ATOM     43 HD21 ASN A   5      21.121  20.726  32.120  0.00  0.00    +0.145 HD
ATOM     44 HD22 ASN A   5      20.303  22.296  31.787  0.00  0.00    +0.145 HD
ATOM     45  OD1 ASN A   5      20.001  19.591  30.195  0.00  0.00    -0.275 OA
ENDBRANCH  40  41
ENDBRANCH   6  40
ENDBRANCH   2   6
ENDBRANCH   1   4
BRANCH   1  46
ATOM     46  C   ILE A   6      14.314  22.370  27.250  0.00  0.00    +0.241 C 
ATOM     47  O   ILE A   6      13.911  21.235  27.531  0.00  0.00    -0.273 OA
ATOM     48  N   ILE A   7      13.603  23.464  27.497  0.00  0.00    -0.297 N 
ATOM     49  H   ILE A   7      14.055  24.386  27.334  0.00  0.00    +0.150 HD
BRANCH  48  50
ATOM     50  CA  ILE A   7      12.234  23.453  27.980  0.00  0.00    +0.149 C 
BRANCH  50  51
ATOM     51  C   ILE A   7      11.346  23.700  26.783  0.00  0.00    +0.241 C 
ATOM     52  N   GLY A   8      10.569  22.692  26.406  0.00  0.00    -0.295 N 
ATOM     53  H   GLY A   8      10.571  21.819  26.972  0.00  0.00    +0.150 HD
ATOM     54  O   ILE A   7      11.380  24.780  26.193  0.00  0.00    -0.273 OA
BRANCH  52  55
ATOM     55  CA  GLY A   8       9.726  22.761  25.247  0.00  0.00    +0.176 C 
BRANCH  55  56
ATOM     56  C   GLY A   8       8.291  23.052  25.569  0.00  0.00    +0.243 C 
ATOM     57  O   GLY A   8       7.909  23.329  26.720  0.00  0.00    -0.273 OA
ATOM     58  N   ARG A   9       7.469  22.999  24.537  0.00  0.00    -0.297 N 
ATOM     59  H   ARG A   9       7.798  22.595  23.637  0.00  0.00    +0.150 HD
BRANCH  58  60
ATOM     60  CA  ARG A   9       6.116  23.497  24.645  0.00  0.00    +0.149 C 
BRANCH  60  61
ATOM     61  C   ARG A   9       5.272  22.715  25.634  0.00  0.00    +0.241 C 
ATOM     62  O   ARG A   9       4.354  23.290  26.226  0.00  0.00    -0.273 OA
ATOM     63  N   ASN A  10       5.549  21.451  25.823  0.00  0.00    -0.298 N 
ATOM     64  H   ASN A  10       6.312  20.997  25.282  0.00  0.00    +0.150 HD
BRANCH  63  65
ATOM     65  CA  ASN A  10       4.768  20.667  26.814  0.00  0.00    +0.146 C 
BRANCH  65  66
ATOM     66  C   ASN A  10       4.802  21.325  28.183  0.00  0.00    +0.227 C 
ATOM     67  O   ASN A  10       3.808  21.266  28.912  0.00  0.00    -0.286 OA
ENDBRANCH  65  66
BRANCH  65  68
ATOM     68  CB  ASN A  10       5.190  19.219  26.869  0.00  0.00    +0.112 C 
BRANCH  68  69
ATOM     69  CG  ASN A  10       6.541  19.013  27.540  0.00  0.00    +0.222 C 
ATOM     70  ND2 ASN A  10       6.519  18.130  28.535  0.00  0.00    -0.329 N 
ATOM     71 HD21 ASN A  10       7.392  17.912  29.056  0.00  0.00    +0.145 HD
ATOM     72 HD22 ASN A  10       5.629  17.658  28.792  0.00  0.00    +0.145 HD
ATOM     73  OD1 ASN A  10       7.545  19.607  27.181  0.00  0.00    -0.275 OA
ENDBRANCH  68  69
ENDBRANCH  65  68
ENDBRANCH  63  65
ENDBRANCH  60  61
BRANCH  60  74
ATOM     74  CB  ARG A   9       5.411  23.520  23.264  0.00  0.00    +0.033 C 
BRANCH  74  75
ATOM     75  CG  ARG A   9       6.078  24.557  22.326  0.00  0.00    +0.045 C 
BRANCH  75  76
ATOM     76  CD  ARG A   9       5.349  24.677  20.966  0.00  0.00    +0.174 C 
BRANCH  76  77
ATOM     77  NE  ARG A   9       5.327  23.426  20.231  0.00  0.00    -0.265 N 
ATOM     78  CZ  ARG A   9       4.386  22.540  20.243  0.00  0.00    +0.342 C 
ATOM     79  NH2 ARG A   9       3.231  22.705  20.864  0.00  0.00    -0.292 N 
ATOM     80 HH21 ARG A   9       3.040  23.587  21.381  0.00  0.00    +0.255 HD
ATOM     81 HH22 ARG A   9       2.513  21.953  20.836  0.00  0.00    +0.255 HD
ATOM     82  NH1 ARG A   9       4.574  21.403  19.550  0.00  0.00    -0.292 N 
ATOM     83 HH11 ARG A   9       3.835  20.671  19.541  0.00  0.00    +0.255 HD
ATOM     84 HH12 ARG A   9       5.459  21.255  19.023  0.00  0.00    +0.255 HD
ATOM     85  HE  ARG A   9       6.153  23.221  19.633  0.00  0.00    +0.259 HD
ENDBRANCH  76  77
ENDBRANCH  75  76
ENDBRANCH  74  75
ENDBRANCH  60  74
ENDBRANCH  58  60
ENDBRANCH  55  56
ENDBRANCH  52  55
ENDBRANCH  50  51
BRANCH  50  86
ATOM     86  CB  ILE A   7      11.976  24.517  29.064  0.00  0.00    +0.027 C 
ATOM     87  CG2 ILE A   7      10.529  24.431  29.558  0.00  0.00    +0.002 C 
BRANCH  86  88
ATOM     88  CG1 ILE A   7      12.994  24.438  30.222  0.00  0.00    +0.002 C 
ATOM     89  CD1 ILE A   7      13.062  23.085  30.862  0.00  0.00    +0.000 C 
ENDBRANCH  86  88
ENDBRANCH  50  86
ENDBRANCH  48  50
ENDBRANCH   1  46
BRANCH   1  90
ATOM     90  CB  ILE A   6      15.568  22.504  25.024  0.00  0.00    +0.027 C 
ATOM     91  CG2 ILE A   6      16.832  21.828  24.466  0.00  0.00    +0.002 C 
BRANCH  90  92
ATOM     92  CG1 ILE A   6      14.277  21.919  24.431  0.00  0.00    +0.002 C 
ATOM     93  CD1 ILE A   6      14.568  21.175  23.139  0.00  0.00    +0.000 C 
ENDBRANCH  90  92
ENDBRANCH   1  90
TORSDOF 33
REMARK  Name = ../refined-set-2016/3bva/3bva_pocket.pdb
REMARK  225 active torsions:
REMARK  status: ('A' for Active; 'I' for Inactive)
REMARK    1  A    between atoms: _1  and  _3
REMARK    2  A    between atoms: _3  and  _4
REMARK    3  A    between atoms: _3  and  _6
REMARK    4  A    between atoms: _6  and  _7
REMARK    5  A    between atoms: _7  and  _8
REMARK    6  A    between atoms: _8  and  _9
REMARK    7  A    between atoms: _18  and  _20
REMARK    8  A    between atoms: _20  and  _21
REMARK    9  A    between atoms: _20  and  _23
REMARK   10  A    between atoms: _23  and  _24
REMARK   11  A    between atoms: _27  and  _29
REMARK   12  A    between atoms: _29  and  _30
REMARK   13  A    between atoms: _29  and  _32
REMARK   14  A    between atoms: _32  and  _33
REMARK   15  A    between atoms: _38  and  _40
REMARK   16  A    between atoms: _40  and  _41
REMARK   17  A    between atoms: _40  and  _43
REMARK   18  A    between atoms: _43  and  _44
REMARK   19  A    between atoms: _47  and  _49
REMARK   20  A    between atoms: _49  and  _50
REMARK   21  A    between atoms: _52  and  _54
REMARK   22  A    between atoms: _54  and  _55
REMARK   23  A    between atoms: _58  and  _60
REMARK   24  A    between atoms: _60  and  _61
REMARK   25  A    between atoms: _60  and  _63
REMARK   26  A    between atoms: _63  and  _64
REMARK   27  A    between atoms: _67  and  _69
REMARK   28  A    between atoms: _69  and  _70
REMARK   29  A    between atoms: _69  and  _72
REMARK   30  A    between atoms: _72  and  _73
REMARK   31  A    between atoms: _76  and  _78
REMARK   32  A    between atoms: _78  and  _79
REMARK   33  A    between atoms: _78  and  _81
REMARK   34  A    between atoms: _81  and  _82
REMARK   35  A    between atoms: _85  and  _87
REMARK   36  A    between atoms: _87  and  _88
REMARK   37  A    between atoms: _87  and  _90
REMARK   38  A    between atoms: _93  and  _95
REMARK   39  A    between atoms: _95  and  _96
REMARK   40  A    between atoms: _95  and  _98
REMARK   41  A    between atoms: _98  and  _99
REMARK   42  A    between atoms: _99  and  _100
REMARK   43  A    between atoms: _100  and  _101
REMARK   44  A    between atoms: _101  and  _102
REMARK   45  A    between atoms: _106  and  _108
REMARK   46  A    between atoms: _108  and  _109
REMARK   47  A    between atoms: _108  and  _111
REMARK   48  A    between atoms: _111  and  _112
REMARK   49  A    between atoms: _112  and  _113
REMARK   50  A    between atoms: _115  and  _117
REMARK   51  A    between atoms: _117  and  _118
REMARK   52  A    between atoms: _117  and  _120
REMARK   53  A    between atoms: _120  and  _121
REMARK   54  A    between atoms: _124  and  _126
REMARK   55  A    between atoms: _126  and  _127
REMARK   56  A    between atoms: _129  and  _131
REMARK   57  A    between atoms: _131  and  _132
REMARK   58  A    between atoms: _134  and  _136
REMARK   59  A    between atoms: _136  and  _137
REMARK   60  A    between atoms: _136  and  _139
REMARK   61  A    between atoms: _139  and  _140
REMARK   62  A    between atoms: _143  and  _145
REMARK   63  A    between atoms: _145  and  _146
REMARK   64  A    between atoms: _148  and  _150
REMARK   65  A    between atoms: _150  and  _151
REMARK   66  A    between atoms: _153  and  _155
REMARK   67  A    between atoms: _155  and  _156
REMARK   68  A    between atoms: _155  and  _158
REMARK   69  A    between atoms: _158  and  _159
REMARK   70  A    between atoms: _165  and  _167
REMARK   71  A    between atoms: _167  and  _168
REMARK   72  A    between atoms: _167  and  _170
REMARK   73  A    between atoms: _170  and  _171
REMARK   74  A    between atoms: _174  and  _176
REMARK   75  A    between atoms: _176  and  _177
REMARK   76  A    between atoms: _176  and  _179
REMARK   77  A    between atoms: _182  and  _184
REMARK   78  A    between atoms: _184  and  _185
REMARK   79  A    between atoms: _184  and  _187
REMARK   80  A    between atoms: _187  and  _188
REMARK   81  A    between atoms: _191  and  _193
REMARK   82  A    between atoms: _193  and  _194
REMARK   83  A    between atoms: _193  and  _196
REMARK   84  A    between atoms: _196  and  _197
REMARK   85  A    between atoms: _201  and  _202
REMARK   86  A    between atoms: _207  and  _209
REMARK   87  A    between atoms: _209  and  _210
REMARK   88  A    between atoms: _209  and  _212
REMARK   89  A    between atoms: _215  and  _217
REMARK   90  A    between atoms: _217  and  _218
REMARK   91  A    between atoms: _217  and  _220
REMARK   92  A    between atoms: _220  and  _221
REMARK   93  A    between atoms: _226  and  _228
REMARK   94  A    between atoms: _228  and  _229
REMARK   95  A    between atoms: _228  and  _231
REMARK   96  A    between atoms: _231  and  _232
REMARK   97  A    between atoms: _235  and  _237
REMARK   98  A    between atoms: _237  and  _238
REMARK   99  A    between atoms: _240  and  _242
REMARK  100  A    between atoms: _242  and  _243
REMARK  101  A    between atoms: _242  and  _245
REMARK  102  A    between atoms: _245  and  _246
REMARK  103  A    between atoms: _246  and  _247
REMARK  104  A    between atoms: _247  and  _248
REMARK  105  A    between atoms: _257  and  _259
REMARK  106  A    between atoms: _259  and  _260
REMARK  107  A    between atoms: _259  and  _262
REMARK  108  A    between atoms: _262  and  _263
REMARK  109  A    between atoms: _268  and  _270
REMARK  110  A    between atoms: _270  and  _271
REMARK  111  A    between atoms: _270  and  _273
REMARK  112  A    between atoms: _273  and  _274
REMARK  113  A    between atoms: _274  and  _275
REMARK  114  A    between atoms: _275  and  _276
REMARK  115  A    between atoms: _285  and  _287
REMARK  116  A    between atoms: _287  and  _288
REMARK  117  A    between atoms: _287  and  _290
REMARK  118  A    between atoms: _290  and  _291
REMARK  119  A    between atoms: _294  and  _296
REMARK  120  A    between atoms: _296  and  _297
REMARK  121  A    between atoms: _296  and  _299
REMARK  122  A    between atoms: _299  and  _300
REMARK  123  A    between atoms: _303  and  _305
REMARK  124  A    between atoms: _305  and  _306
REMARK  125  A    between atoms: _305  and  _308
REMARK  126  A    between atoms: _308  and  _309
REMARK  127  A    between atoms: _314  and  _316
REMARK  128  A    between atoms: _316  and  _317
REMARK  129  A    between atoms: _316  and  _319
REMARK  130  A    between atoms: _319  and  _320
REMARK  131  A    between atoms: _323  and  _325
REMARK  132  A    between atoms: _325  and  _326
REMARK  133  A    between atoms: _328  and  _330
REMARK  134  A    between atoms: _330  and  _331
REMARK  135  A    between atoms: _334  and  _336
REMARK  136  A    between atoms: _336  and  _337
REMARK  137  A    between atoms: _336  and  _339
REMARK  138  A    between atoms: _339  and  _340
REMARK  139  A    between atoms: _343  and  _345
REMARK  140  A    between atoms: _345  and  _346
REMARK  141  A    between atoms: _345  and  _348
REMARK  142  A    between atoms: _348  and  _349
REMARK  143  A    between atoms: _352  and  _354
REMARK  144  A    between atoms: _354  and  _355
REMARK  145  A    between atoms: _354  and  _357
REMARK  146  A    between atoms: _357  and  _358
REMARK  147  A    between atoms: _361  and  _363
REMARK  148  A    between atoms: _363  and  _364
REMARK  149  A    between atoms: _363  and  _366
REMARK  150  A    between atoms: _369  and  _371
REMARK  151  A    between atoms: _371  and  _372
REMARK  152  A    between atoms: _371  and  _374
REMARK  153  A    between atoms: _374  and  _375
REMARK  154  A    between atoms: _375  and  _376
REMARK  155  A    between atoms: _376  and  _377
REMARK  156  A    between atoms: _377  and  _378
REMARK  157  A    between atoms: _382  and  _384
REMARK  158  A    between atoms: _384  and  _385
REMARK  159  A    between atoms: _384  and  _387
REMARK  160  A    between atoms: _387  and  _388
REMARK  161  A    between atoms: _388  and  _389
REMARK  162  A    between atoms: _391  and  _393
REMARK  163  A    between atoms: _393  and  _394
REMARK  164  A    between atoms: _393  and  _396
REMARK  165  A    between atoms: _396  and  _397
REMARK  166  A    between atoms: _400  and  _402
REMARK  167  A    between atoms: _402  and  _403
REMARK  168  A    between atoms: _405  and  _407
REMARK  169  A    between atoms: _407  and  _408
REMARK  170  A    between atoms: _410  and  _412
REMARK  171  A    between atoms: _412  and  _413
REMARK  172  A    between atoms: _412  and  _415
REMARK  173  A    between atoms: _415  and  _416
REMARK  174  A    between atoms: _419  and  _421
REMARK  175  A    between atoms: _421  and  _422
REMARK  176  A    between atoms: _424  and  _426
REMARK  177  A    between atoms: _426  and  _427
REMARK  178  A    between atoms: _429  and  _431
REMARK  179  A    between atoms: _431  and  _432
REMARK  180  A    between atoms: _431  and  _434
REMARK  181  A    between atoms: _434  and  _435
REMARK  182  A    between atoms: _441  and  _443
REMARK  183  A    between atoms: _443  and  _444
REMARK  184  A    between atoms: _443  and  _446
REMARK  185  A    between atoms: _446  and  _447
REMARK  186  A    between atoms: _450  and  _452
REMARK  187  A    between atoms: _452  and  _453
REMARK  188  A    between atoms: _452  and  _455
REMARK  189  A    between atoms: _458  and  _460
REMARK  190  A    between atoms: _460  and  _461
REMARK  191  A    between atoms: _460  and  _463
REMARK  192  A    between atoms: _463  and  _464
REMARK  193  A    between atoms: _468  and  _469
REMARK  194  A    between atoms: _474  and  _476
REMARK  195  A    between atoms: _476  and  _477
REMARK  196  A    between atoms: _476  and  _479
REMARK  197  A    between atoms: _479  and  _480
REMARK  198  A    between atoms: _484  and  _485
REMARK  199  A    between atoms: _490  and  _492
REMARK  200  A    between atoms: _492  and  _493
REMARK  201  A    between atoms: _492  and  _495
REMARK  202  A    between atoms: _498  and  _500
REMARK  203  A    between atoms: _500  and  _501
REMARK  204  A    between atoms: _500  and  _503
REMARK  205  A    between atoms: _503  and  _504
REMARK  206  A    between atoms: _509  and  _511
REMARK  207  A    between atoms: _511  and  _512
REMARK  208  A    between atoms: _511  and  _514
REMARK  209  A    between atoms: _514  and  _515
REMARK  210  A    between atoms: _518  and  _520
REMARK  211  A    between atoms: _520  and  _521
REMARK  212  A    between atoms: _520  and  _523
REMARK  213  A    between atoms: _523  and  _524
REMARK  214  A    between atoms: _527  and  _529
REMARK  215  A    between atoms: _529  and  _530
REMARK  216  A    between atoms: _532  and  _534
REMARK  217  A    between atoms: _534  and  _535
REMARK  218  A    between atoms: _534  and  _537
REMARK  219  A    between atoms: _537  and  _538
REMARK  220  A    between atoms: _538  and  _539
REMARK  221  A    between atoms: _539  and  _540
REMARK  222  A    between atoms: _549  and  _551
REMARK  223  A    between atoms: _551  and  _552
REMARK  224  A    between atoms: _551  and  _554
REMARK  225  A    between atoms: _554  and  _555
REMARK                            x       y       z     vdW  Elec       q    Type
REMARK                         _______ _______ _______ _____ _____    ______ ____
ROOT
ATOM      1  O   HOH     1      20.272  28.566  21.045  0.00  0.00    +0.000 OA
ENDROOT
TORSDOF 0
REMARK  Name = ../refined-set-2016/3bva/3bva_pocket.pdb
REMARK  225 active torsions:
REMARK  status: ('A' for Active; 'I' for Inactive)
REMARK    1  A    between atoms: _1  and  _3
REMARK    2  A    between atoms: _3  and  _4
REMARK    3  A    between atoms: _3  and  _6
REMARK    4  A    between atoms: _6  and  _7
REMARK    5  A    between atoms: _7  and  _8
REMARK    6  A    between atoms: _8  and  _9
REMARK    7  A    between atoms: _18  and  _20
REMARK    8  A    between atoms: _20  and  _21
REMARK    9  A    between atoms: _20  and  _23
REMARK   10  A    between atoms: _23  and  _24
REMARK   11  A    between atoms: _27  and  _29
REMARK   12  A    between atoms: _29  and  _30
REMARK   13  A    between atoms: _29  and  _32
REMARK   14  A    between atoms: _32  and  _33
REMARK   15  A    between atoms: _38  and  _40
REMARK   16  A    between atoms: _40  and  _41
REMARK   17  A    between atoms: _40  and  _43
REMARK   18  A    between atoms: _43  and  _44
REMARK   19  A    between atoms: _47  and  _49
REMARK   20  A    between atoms: _49  and  _50
REMARK   21  A    between atoms: _52  and  _54
REMARK   22  A    between atoms: _54  and  _55
REMARK   23  A    between atoms: _58  and  _60
REMARK   24  A    between atoms: _60  and  _61
REMARK   25  A    between atoms: _60  and  _63
REMARK   26  A    between atoms: _63  and  _64
REMARK   27  A    between atoms: _67  and  _69
REMARK   28  A    between atoms: _69  and  _70
REMARK   29  A    between atoms: _69  and  _72
REMARK   30  A    between atoms: _72  and  _73
REMARK   31  A    between atoms: _76  and  _78
REMARK   32  A    between atoms: _78  and  _79
REMARK   33  A    between atoms: _78  and  _81
REMARK   34  A    between atoms: _81  and  _82
REMARK   35  A    between atoms: _85  and  _87
REMARK   36  A    between atoms: _87  and  _88
REMARK   37  A    between atoms: _87  and  _90
REMARK   38  A    between atoms: _93  and  _95
REMARK   39  A    between atoms: _95  and  _96
REMARK   40  A    between atoms: _95  and  _98
REMARK   41  A    between atoms: _98  and  _99
REMARK   42  A    between atoms: _99  and  _100
REMARK   43  A    between atoms: _100  and  _101
REMARK   44  A    between atoms: _101  and  _102
REMARK   45  A    between atoms: _106  and  _108
REMARK   46  A    between atoms: _108  and  _109
REMARK   47  A    between atoms: _108  and  _111
REMARK   48  A    between atoms: _111  and  _112
REMARK   49  A    between atoms: _112  and  _113
REMARK   50  A    between atoms: _115  and  _117
REMARK   51  A    between atoms: _117  and  _118
REMARK   52  A    between atoms: _117  and  _120
REMARK   53  A    between atoms: _120  and  _121
REMARK   54  A    between atoms: _124  and  _126
REMARK   55  A    between atoms: _126  and  _127
REMARK   56  A    between atoms: _129  and  _131
REMARK   57  A    between atoms: _131  and  _132
REMARK   58  A    between atoms: _134  and  _136
REMARK   59  A    between atoms: _136  and  _137
REMARK   60  A    between atoms: _136  and  _139
REMARK   61  A    between atoms: _139  and  _140
REMARK   62  A    between atoms: _143  and  _145
REMARK   63  A    between atoms: _145  and  _146
REMARK   64  A    between atoms: _148  and  _150
REMARK   65  A    between atoms: _150  and  _151
REMARK   66  A    between atoms: _153  and  _155
REMARK   67  A    between atoms: _155  and  _156
REMARK   68  A    between atoms: _155  and  _158
REMARK   69  A    between atoms: _158  and  _159
REMARK   70  A    between atoms: _165  and  _167
REMARK   71  A    between atoms: _167  and  _168
REMARK   72  A    between atoms: _167  and  _170
REMARK   73  A    between atoms: _170  and  _171
REMARK   74  A    between atoms: _174  and  _176
REMARK   75  A    between atoms: _176  and  _177
REMARK   76  A    between atoms: _176  and  _179
REMARK   77  A    between atoms: _182  and  _184
REMARK   78  A    between atoms: _184  and  _185
REMARK   79  A    between atoms: _184  and  _187
REMARK   80  A    between atoms: _187  and  _188
REMARK   81  A    between atoms: _191  and  _193
REMARK   82  A    between atoms: _193  and  _194
REMARK   83  A    between atoms: _193  and  _196
REMARK   84  A    between atoms: _196  and  _197
REMARK   85  A    between atoms: _201  and  _202
REMARK   86  A    between atoms: _207  and  _209
REMARK   87  A    between atoms: _209  and  _210
REMARK   88  A    between atoms: _209  and  _212
REMARK   89  A    between atoms: _215  and  _217
REMARK   90  A    between atoms: _217  and  _218
REMARK   91  A    between atoms: _217  and  _220
REMARK   92  A    between atoms: _220  and  _221
REMARK   93  A    between atoms: _226  and  _228
REMARK   94  A    between atoms: _228  and  _229
REMARK   95  A    between atoms: _228  and  _231
REMARK   96  A    between atoms: _231  and  _232
REMARK   97  A    between atoms: _235  and  _237
REMARK   98  A    between atoms: _237  and  _238
REMARK   99  A    between atoms: _240  and  _242
REMARK  100  A    between atoms: _242  and  _243
REMARK  101  A    between atoms: _242  and  _245
REMARK  102  A    between atoms: _245  and  _246
REMARK  103  A    between atoms: _246  and  _247
REMARK  104  A    between atoms: _247  and  _248
REMARK  105  A    between atoms: _257  and  _259
REMARK  106  A    between atoms: _259  and  _260
REMARK  107  A    between atoms: _259  and  _262
REMARK  108  A    between atoms: _262  and  _263
REMARK  109  A    between atoms: _268  and  _270
REMARK  110  A    between atoms: _270  and  _271
REMARK  111  A    between atoms: _270  and  _273
REMARK  112  A    between atoms: _273  and  _274
REMARK  113  A    between atoms: _274  and  _275
REMARK  114  A    between atoms: _275  and  _276
REMARK  115  A    between atoms: _285  and  _287
REMARK  116  A    between atoms: _287  and  _288
REMARK  117  A    between atoms: _287  and  _290
REMARK  118  A    between atoms: _290  and  _291
REMARK  119  A    between atoms: _294  and  _296
REMARK  120  A    between atoms: _296  and  _297
REMARK  121  A    between atoms: _296  and  _299
REMARK  122  A    between atoms: _299  and  _300
REMARK  123  A    between atoms: _303  and  _305
REMARK  124  A    between atoms: _305  and  _306
REMARK  125  A    between atoms: _305  and  _308
REMARK  126  A    between atoms: _308  and  _309
REMARK  127  A    between atoms: _314  and  _316
REMARK  128  A    between atoms: _316  and  _317
REMARK  129  A    between atoms: _316  and  _319
REMARK  130  A    between atoms: _319  and  _320
REMARK  131  A    between atoms: _323  and  _325
REMARK  132  A    between atoms: _325  and  _326
REMARK  133  A    between atoms: _328  and  _330
REMARK  134  A    between atoms: _330  and  _331
REMARK  135  A    between atoms: _334  and  _336
REMARK  136  A    between atoms: _336  and  _337
REMARK  137  A    between atoms: _336  and  _339
REMARK  138  A    between atoms: _339  and  _340
REMARK  139  A    between atoms: _343  and  _345
REMARK  140  A    between atoms: _345  and  _346
REMARK  141  A    between atoms: _345  and  _348
REMARK  142  A    between atoms: _348  and  _349
REMARK  143  A    between atoms: _352  and  _354
REMARK  144  A    between atoms: _354  and  _355
REMARK  145  A    between atoms: _354  and  _357
REMARK  146  A    between atoms: _357  and  _358
REMARK  147  A    between atoms: _361  and  _363
REMARK  148  A    between atoms: _363  and  _364
REMARK  149  A    between atoms: _363  and  _366
REMARK  150  A    between atoms: _369  and  _371
REMARK  151  A    between atoms: _371  and  _372
REMARK  152  A    between atoms: _371  and  _374
REMARK  153  A    between atoms: _374  and  _375
REMARK  154  A    between atoms: _375  and  _376
REMARK  155  A    between atoms: _376  and  _377
REMARK  156  A    between atoms: _377  and  _378
REMARK  157  A    between atoms: _382  and  _384
REMARK  158  A    between atoms: _384  and  _385
REMARK  159  A    between atoms: _384  and  _387
REMARK  160  A    between atoms: _387  and  _388
REMARK  161  A    between atoms: _388  and  _389
REMARK  162  A    between atoms: _391  and  _393
REMARK  163  A    between atoms: _393  and  _394
REMARK  164  A    between atoms: _393  and  _396
REMARK  165  A    between atoms: _396  and  _397
REMARK  166  A    between atoms: _400  and  _402
REMARK  167  A    between atoms: _402  and  _403
REMARK  168  A    between atoms: _405  and  _407
REMARK  169  A    between atoms: _407  and  _408
REMARK  170  A    between atoms: _410  and  _412
REMARK  171  A    between atoms: _412  and  _413
REMARK  172  A    between atoms: _412  and  _415
REMARK  173  A    between atoms: _415  and  _416
REMARK  174  A    between atoms: _419  and  _421
REMARK  175  A    between atoms: _421  and  _422
REMARK  176  A    between atoms: _424  and  _426
REMARK  177  A    between atoms: _426  and  _427
REMARK  178  A    between atoms: _429  and  _431
REMARK  179  A    between atoms: _431  and  _432
REMARK  180  A    between atoms: _431  and  _434
REMARK  181  A    between atoms: _434  and  _435
REMARK  182  A    between atoms: _441  and  _443
REMARK  183  A    between atoms: _443  and  _444
REMARK  184  A    between atoms: _443  and  _446
REMARK  185  A    between atoms: _446  and  _447
REMARK  186  A    between atoms: _450  and  _452
REMARK  187  A    between atoms: _452  and  _453
REMARK  188  A    between atoms: _452  and  _455
REMARK  189  A    between atoms: _458  and  _460
REMARK  190  A    between atoms: _460  and  _461
REMARK  191  A    between atoms: _460  and  _463
REMARK  192  A    between atoms: _463  and  _464
REMARK  193  A    between atoms: _468  and  _469
REMARK  194  A    between atoms: _474  and  _476
REMARK  195  A    between atoms: _476  and  _477
REMARK  196  A    between atoms: _476  and  _479
REMARK  197  A    between atoms: _479  and  _480
REMARK  198  A    between atoms: _484  and  _485
REMARK  199  A    between atoms: _490  and  _492
REMARK  200  A    between atoms: _492  and  _493
REMARK  201  A    between atoms: _492  and  _495
REMARK  202  A    between atoms: _498  and  _500
REMARK  203  A    between atoms: _500  and  _501
REMARK  204  A    between atoms: _500  and  _503
REMARK  205  A    between atoms: _503  and  _504
REMARK  206  A    between atoms: _509  and  _511
REMARK  207  A    between atoms: _511  and  _512
REMARK  208  A    between atoms: _511  and  _514
REMARK  209  A    between atoms: _514  and  _515
REMARK  210  A    between atoms: _518  and  _520
REMARK  211  A    between atoms: _520  and  _521
REMARK  212  A    between atoms: _520  and  _523
REMARK  213  A    between atoms: _523  and  _524
REMARK  214  A    between atoms: _527  and  _529
REMARK  215  A    between atoms: _529  and  _530
REMARK  216  A    between atoms: _532  and  _534
REMARK  217  A    between atoms: _534  and  _535
REMARK  218  A    between atoms: _534  and  _537
REMARK  219  A    between atoms: _537  and  _538
REMARK  220  A    between atoms: _538  and  _539
REMARK  221  A    between atoms: _539  and  _540
REMARK  222  A    between atoms: _549  and  _551
REMARK  223  A    between atoms: _551  and  _552
REMARK  224  A    between atoms: _551  and  _554
REMARK  225  A    between atoms: _554  and  _555
REMARK                            x       y       z     vdW  Elec       q    Type
REMARK                         _______ _______ _______ _____ _____    ______ ____
ROOT
ATOM      1  O   HOH     1      18.475  30.668  21.724  0.00  0.00    +0.000 OA
ENDROOT
TORSDOF 0
REMARK  Name = ../refined-set-2016/3bva/3bva_pocket.pdb
REMARK  225 active torsions:
REMARK  status: ('A' for Active; 'I' for Inactive)
REMARK    1  A    between atoms: _1  and  _3
REMARK    2  A    between atoms: _3  and  _4
REMARK    3  A    between atoms: _3  and  _6
REMARK    4  A    between atoms: _6  and  _7
REMARK    5  A    between atoms: _7  and  _8
REMARK    6  A    between atoms: _8  and  _9
REMARK    7  A    between atoms: _18  and  _20
REMARK    8  A    between atoms: _20  and  _21
REMARK    9  A    between atoms: _20  and  _23
REMARK   10  A    between atoms: _23  and  _24
REMARK   11  A    between atoms: _27  and  _29
REMARK   12  A    between atoms: _29  and  _30
REMARK   13  A    between atoms: _29  and  _32
REMARK   14  A    between atoms: _32  and  _33
REMARK   15  A    between atoms: _38  and  _40
REMARK   16  A    between atoms: _40  and  _41
REMARK   17  A    between atoms: _40  and  _43
REMARK   18  A    between atoms: _43  and  _44
REMARK   19  A    between atoms: _47  and  _49
REMARK   20  A    between atoms: _49  and  _50
REMARK   21  A    between atoms: _52  and  _54
REMARK   22  A    between atoms: _54  and  _55
REMARK   23  A    between atoms: _58  and  _60
REMARK   24  A    between atoms: _60  and  _61
REMARK   25  A    between atoms: _60  and  _63
REMARK   26  A    between atoms: _63  and  _64
REMARK   27  A    between atoms: _67  and  _69
REMARK   28  A    between atoms: _69  and  _70
REMARK   29  A    between atoms: _69  and  _72
REMARK   30  A    between atoms: _72  and  _73
REMARK   31  A    between atoms: _76  and  _78
REMARK   32  A    between atoms: _78  and  _79
REMARK   33  A    between atoms: _78  and  _81
REMARK   34  A    between atoms: _81  and  _82
REMARK   35  A    between atoms: _85  and  _87
REMARK   36  A    between atoms: _87  and  _88
REMARK   37  A    between atoms: _87  and  _90
REMARK   38  A    between atoms: _93  and  _95
REMARK   39  A    between atoms: _95  and  _96
REMARK   40  A    between atoms: _95  and  _98
REMARK   41  A    between atoms: _98  and  _99
REMARK   42  A    between atoms: _99  and  _100
REMARK   43  A    between atoms: _100  and  _101
REMARK   44  A    between atoms: _101  and  _102
REMARK   45  A    between atoms: _106  and  _108
REMARK   46  A    between atoms: _108  and  _109
REMARK   47  A    between atoms: _108  and  _111
REMARK   48  A    between atoms: _111  and  _112
REMARK   49  A    between atoms: _112  and  _113
REMARK   50  A    between atoms: _115  and  _117
REMARK   51  A    between atoms: _117  and  _118
REMARK   52  A    between atoms: _117  and  _120
REMARK   53  A    between atoms: _120  and  _121
REMARK   54  A    between atoms: _124  and  _126
REMARK   55  A    between atoms: _126  and  _127
REMARK   56  A    between atoms: _129  and  _131
REMARK   57  A    between atoms: _131  and  _132
REMARK   58  A    between atoms: _134  and  _136
REMARK   59  A    between atoms: _136  and  _137
REMARK   60  A    between atoms: _136  and  _139
REMARK   61  A    between atoms: _139  and  _140
REMARK   62  A    between atoms: _143  and  _145
REMARK   63  A    between atoms: _145  and  _146
REMARK   64  A    between atoms: _148  and  _150
REMARK   65  A    between atoms: _150  and  _151
REMARK   66  A    between atoms: _153  and  _155
REMARK   67  A    between atoms: _155  and  _156
REMARK   68  A    between atoms: _155  and  _158
REMARK   69  A    between atoms: _158  and  _159
REMARK   70  A    between atoms: _165  and  _167
REMARK   71  A    between atoms: _167  and  _168
REMARK   72  A    between atoms: _167  and  _170
REMARK   73  A    between atoms: _170  and  _171
REMARK   74  A    between atoms: _174  and  _176
REMARK   75  A    between atoms: _176  and  _177
REMARK   76  A    between atoms: _176  and  _179
REMARK   77  A    between atoms: _182  and  _184
REMARK   78  A    between atoms: _184  and  _185
REMARK   79  A    between atoms: _184  and  _187
REMARK   80  A    between atoms: _187  and  _188
REMARK   81  A    between atoms: _191  and  _193
REMARK   82  A    between atoms: _193  and  _194
REMARK   83  A    between atoms: _193  and  _196
REMARK   84  A    between atoms: _196  and  _197
REMARK   85  A    between atoms: _201  and  _202
REMARK   86  A    between atoms: _207  and  _209
REMARK   87  A    between atoms: _209  and  _210
REMARK   88  A    between atoms: _209  and  _212
REMARK   89  A    between atoms: _215  and  _217
REMARK   90  A    between atoms: _217  and  _218
REMARK   91  A    between atoms: _217  and  _220
REMARK   92  A    between atoms: _220  and  _221
REMARK   93  A    between atoms: _226  and  _228
REMARK   94  A    between atoms: _228  and  _229
REMARK   95  A    between atoms: _228  and  _231
REMARK   96  A    between atoms: _231  and  _232
REMARK   97  A    between atoms: _235  and  _237
REMARK   98  A    between atoms: _237  and  _238
REMARK   99  A    between atoms: _240  and  _242
REMARK  100  A    between atoms: _242  and  _243
REMARK  101  A    between atoms: _242  and  _245
REMARK  102  A    between atoms: _245  and  _246
REMARK  103  A    between atoms: _246  and  _247
REMARK  104  A    between atoms: _247  and  _248
REMARK  105  A    between atoms: _257  and  _259
REMARK  106  A    between atoms: _259  and  _260
REMARK  107  A    between atoms: _259  and  _262
REMARK  108  A    between atoms: _262  and  _263
REMARK  109  A    between atoms: _268  and  _270
REMARK  110  A    between atoms: _270  and  _271
REMARK  111  A    between atoms: _270  and  _273
REMARK  112  A    between atoms: _273  and  _274
REMARK  113  A    between atoms: _274  and  _275
REMARK  114  A    between atoms: _275  and  _276
REMARK  115  A    between atoms: _285  and  _287
REMARK  116  A    between atoms: _287  and  _288
REMARK  117  A    between atoms: _287  and  _290
REMARK  118  A    between atoms: _290  and  _291
REMARK  119  A    between atoms: _294  and  _296
REMARK  120  A    between atoms: _296  and  _297
REMARK  121  A    between atoms: _296  and  _299
REMARK  122  A    between atoms: _299  and  _300
REMARK  123  A    between atoms: _303  and  _305
REMARK  124  A    between atoms: _305  and  _306
REMARK  125  A    between atoms: _305  and  _308
REMARK  126  A    between atoms: _308  and  _309
REMARK  127  A    between atoms: _314  and  _316
REMARK  128  A    between atoms: _316  and  _317
REMARK  129  A    between atoms: _316  and  _319
REMARK  130  A    between atoms: _319  and  _320
REMARK  131  A    between atoms: _323  and  _325
REMARK  132  A    between atoms: _325  and  _326
REMARK  133  A    between atoms: _328  and  _330
REMARK  134  A    between atoms: _330  and  _331
REMARK  135  A    between atoms: _334  and  _336
REMARK  136  A    between atoms: _336  and  _337
REMARK  137  A    between atoms: _336  and  _339
REMARK  138  A    between atoms: _339  and  _340
REMARK  139  A    between atoms: _343  and  _345
REMARK  140  A    between atoms: _345  and  _346
REMARK  141  A    between atoms: _345  and  _348
REMARK  142  A    between atoms: _348  and  _349
REMARK  143  A    between atoms: _352  and  _354
REMARK  144  A    between atoms: _354  and  _355
REMARK  145  A    between atoms: _354  and  _357
REMARK  146  A    between atoms: _357  and  _358
REMARK  147  A    between atoms: _361  and  _363
REMARK  148  A    between atoms: _363  and  _364
REMARK  149  A    between atoms: _363  and  _366
REMARK  150  A    between atoms: _369  and  _371
REMARK  151  A    between atoms: _371  and  _372
REMARK  152  A    between atoms: _371  and  _374
REMARK  153  A    between atoms: _374  and  _375
REMARK  154  A    between atoms: _375  and  _376
REMARK  155  A    between atoms: _376  and  _377
REMARK  156  A    between atoms: _377  and  _378
REMARK  157  A    between atoms: _382  and  _384
REMARK  158  A    between atoms: _384  and  _385
REMARK  159  A    between atoms: _384  and  _387
REMARK  160  A    between atoms: _387  and  _388
REMARK  161  A    between atoms: _388  and  _389
REMARK  162  A    between atoms: _391  and  _393
REMARK  163  A    between atoms: _393  and  _394
REMARK  164  A    between atoms: _393  and  _396
REMARK  165  A    between atoms: _396  and  _397
REMARK  166  A    between atoms: _400  and  _402
REMARK  167  A    between atoms: _402  and  _403
REMARK  168  A    between atoms: _405  and  _407
REMARK  169  A    between atoms: _407  and  _408
REMARK  170  A    between atoms: _410  and  _412
REMARK  171  A    between atoms: _412  and  _413
REMARK  172  A    between atoms: _412  and  _415
REMARK  173  A    between atoms: _415  and  _416
REMARK  174  A    between atoms: _419  and  _421
REMARK  175  A    between atoms: _421  and  _422
REMARK  176  A    between atoms: _424  and  _426
REMARK  177  A    between atoms: _426  and  _427
REMARK  178  A    between atoms: _429  and  _431
REMARK  179  A    between atoms: _431  and  _432
REMARK  180  A    between atoms: _431  and  _434
REMARK  181  A    between atoms: _434  and  _435
REMARK  182  A    between atoms: _441  and  _443
REMARK  183  A    between atoms: _443  and  _444
REMARK  184  A    between atoms: _443  and  _446
REMARK  185  A    between atoms: _446  and  _447
REMARK  186  A    between atoms: _450  and  _452
REMARK  187  A    between atoms: _452  and  _453
REMARK  188  A    between atoms: _452  and  _455
REMARK  189  A    between atoms: _458  and  _460
REMARK  190  A    between atoms: _460  and  _461
REMARK  191  A    between atoms: _460  and  _463
REMARK  192  A    between atoms: _463  and  _464
REMARK  193  A    between atoms: _468  and  _469
REMARK  194  A    between atoms: _474  and  _476
REMARK  195  A    between atoms: _476  and  _477
REMARK  196  A    between atoms: _476  and  _479
REMARK  197  A    between atoms: _479  and  _480
REMARK  198  A    between atoms: _484  and  _485
REMARK  199  A    between atoms: _490  and  _492
REMARK  200  A    between atoms: _492  and  _493
REMARK  201  A    between atoms: _492  and  _495
REMARK  202  A    between atoms: _498  and  _500
REMARK  203  A    between atoms: _500  and  _501
REMARK  204  A    between atoms: _500  and  _503
REMARK  205  A    between atoms: _503  and  _504
REMARK  206  A    between atoms: _509  and  _511
REMARK  207  A    between atoms: _511  and  _512
REMARK  208  A    between atoms: _511  and  _514
REMARK  209  A    between atoms: _514  and  _515
REMARK  210  A    between atoms: _518  and  _520
REMARK  211  A    between atoms: _520  and  _521
REMARK  212  A    between atoms: _520  and  _523
REMARK  213  A    between atoms: _523  and  _524
REMARK  214  A    between atoms: _527  and  _529
REMARK  215  A    between atoms: _529  and  _530
REMARK  216  A    between atoms: _532  and  _534
REMARK  217  A    between atoms: _534  and  _535
REMARK  218  A    between atoms: _534  and  _537
REMARK  219  A    between atoms: _537  and  _538
REMARK  220  A    between atoms: _538  and  _539
REMARK  221  A    between atoms: _539  and  _540
REMARK  222  A    between atoms: _549  and  _551
REMARK  223  A    between atoms: _551  and  _552
REMARK  224  A    between atoms: _551  and  _554
REMARK  225  A    between atoms: _554  and  _555
REMARK                            x       y       z     vdW  Elec       q    Type
REMARK                         _______ _______ _______ _____ _____    ______ ____
ROOT
ATOM      1  O   HOH     1      20.810  33.516  10.697  0.00  0.00    +0.000 OA
ENDROOT
TORSDOF 0
REMARK  Name = ../refined-set-2016/3bva/3bva_pocket.pdb
REMARK  225 active torsions:
REMARK  status: ('A' for Active; 'I' for Inactive)
REMARK    1  A    between atoms: _1  and  _3
REMARK    2  A    between atoms: _3  and  _4
REMARK    3  A    between atoms: _3  and  _6
REMARK    4  A    between atoms: _6  and  _7
REMARK    5  A    between atoms: _7  and  _8
REMARK    6  A    between atoms: _8  and  _9
REMARK    7  A    between atoms: _18  and  _20
REMARK    8  A    between atoms: _20  and  _21
REMARK    9  A    between atoms: _20  and  _23
REMARK   10  A    between atoms: _23  and  _24
REMARK   11  A    between atoms: _27  and  _29
REMARK   12  A    between atoms: _29  and  _30
REMARK   13  A    between atoms: _29  and  _32
REMARK   14  A    between atoms: _32  and  _33
REMARK   15  A    between atoms: _38  and  _40
REMARK   16  A    between atoms: _40  and  _41
REMARK   17  A    between atoms: _40  and  _43
REMARK   18  A    between atoms: _43  and  _44
REMARK   19  A    between atoms: _47  and  _49
REMARK   20  A    between atoms: _49  and  _50
REMARK   21  A    between atoms: _52  and  _54
REMARK   22  A    between atoms: _54  and  _55
REMARK   23  A    between atoms: _58  and  _60
REMARK   24  A    between atoms: _60  and  _61
REMARK   25  A    between atoms: _60  and  _63
REMARK   26  A    between atoms: _63  and  _64
REMARK   27  A    between atoms: _67  and  _69
REMARK   28  A    between atoms: _69  and  _70
REMARK   29  A    between atoms: _69  and  _72
REMARK   30  A    between atoms: _72  and  _73
REMARK   31  A    between atoms: _76  and  _78
REMARK   32  A    between atoms: _78  and  _79
REMARK   33  A    between atoms: _78  and  _81
REMARK   34  A    between atoms: _81  and  _82
REMARK   35  A    between atoms: _85  and  _87
REMARK   36  A    between atoms: _87  and  _88
REMARK   37  A    between atoms: _87  and  _90
REMARK   38  A    between atoms: _93  and  _95
REMARK   39  A    between atoms: _95  and  _96
REMARK   40  A    between atoms: _95  and  _98
REMARK   41  A    between atoms: _98  and  _99
REMARK   42  A    between atoms: _99  and  _100
REMARK   43  A    between atoms: _100  and  _101
REMARK   44  A    between atoms: _101  and  _102
REMARK   45  A    between atoms: _106  and  _108
REMARK   46  A    between atoms: _108  and  _109
REMARK   47  A    between atoms: _108  and  _111
REMARK   48  A    between atoms: _111  and  _112
REMARK   49  A    between atoms: _112  and  _113
REMARK   50  A    between atoms: _115  and  _117
REMARK   51  A    between atoms: _117  and  _118
REMARK   52  A    between atoms: _117  and  _120
REMARK   53  A    between atoms: _120  and  _121
REMARK   54  A    between atoms: _124  and  _126
REMARK   55  A    between atoms: _126  and  _127
REMARK   56  A    between atoms: _129  and  _131
REMARK   57  A    between atoms: _131  and  _132
REMARK   58  A    between atoms: _134  and  _136
REMARK   59  A    between atoms: _136  and  _137
REMARK   60  A    between atoms: _136  and  _139
REMARK   61  A    between atoms: _139  and  _140
REMARK   62  A    between atoms: _143  and  _145
REMARK   63  A    between atoms: _145  and  _146
REMARK   64  A    between atoms: _148  and  _150
REMARK   65  A    between atoms: _150  and  _151
REMARK   66  A    between atoms: _153  and  _155
REMARK   67  A    between atoms: _155  and  _156
REMARK   68  A    between atoms: _155  and  _158
REMARK   69  A    between atoms: _158  and  _159
REMARK   70  A    between atoms: _165  and  _167
REMARK   71  A    between atoms: _167  and  _168
REMARK   72  A    between atoms: _167  and  _170
REMARK   73  A    between atoms: _170  and  _171
REMARK   74  A    between atoms: _174  and  _176
REMARK   75  A    between atoms: _176  and  _177
REMARK   76  A    between atoms: _176  and  _179
REMARK   77  A    between atoms: _182  and  _184
REMARK   78  A    between atoms: _184  and  _185
REMARK   79  A    between atoms: _184  and  _187
REMARK   80  A    between atoms: _187  and  _188
REMARK   81  A    between atoms: _191  and  _193
REMARK   82  A    between atoms: _193  and  _194
REMARK   83  A    between atoms: _193  and  _196
REMARK   84  A    between atoms: _196  and  _197
REMARK   85  A    between atoms: _201  and  _202
REMARK   86  A    between atoms: _207  and  _209
REMARK   87  A    between atoms: _209  and  _210
REMARK   88  A    between atoms: _209  and  _212
REMARK   89  A    between atoms: _215  and  _217
REMARK   90  A    between atoms: _217  and  _218
REMARK   91  A    between atoms: _217  and  _220
REMARK   92  A    between atoms: _220  and  _221
REMARK   93  A    between atoms: _226  and  _228
REMARK   94  A    between atoms: _228  and  _229
REMARK   95  A    between atoms: _228  and  _231
REMARK   96  A    between atoms: _231  and  _232
REMARK   97  A    between atoms: _235  and  _237
REMARK   98  A    between atoms: _237  and  _238
REMARK   99  A    between atoms: _240  and  _242
REMARK  100  A    between atoms: _242  and  _243
REMARK  101  A    between atoms: _242  and  _245
REMARK  102  A    between atoms: _245  and  _246
REMARK  103  A    between atoms: _246  and  _247
REMARK  104  A    between atoms: _247  and  _248
REMARK  105  A    between atoms: _257  and  _259
REMARK  106  A    between atoms: _259  and  _260
REMARK  107  A    between atoms: _259  and  _262
REMARK  108  A    between atoms: _262  and  _263
REMARK  109  A    between atoms: _268  and  _270
REMARK  110  A    between atoms: _270  and  _271
REMARK  111  A    between atoms: _270  and  _273
REMARK  112  A    between atoms: _273  and  _274
REMARK  113  A    between atoms: _274  and  _275
REMARK  114  A    between atoms: _275  and  _276
REMARK  115  A    between atoms: _285  and  _287
REMARK  116  A    between atoms: _287  and  _288
REMARK  117  A    between atoms: _287  and  _290
REMARK  118  A    between atoms: _290  and  _291
REMARK  119  A    between atoms: _294  and  _296
REMARK  120  A    between atoms: _296  and  _297
REMARK  121  A    between atoms: _296  and  _299
REMARK  122  A    between atoms: _299  and  _300
REMARK  123  A    between atoms: _303  and  _305
REMARK  124  A    between atoms: _305  and  _306
REMARK  125  A    between atoms: _305  and  _308
REMARK  126  A    between atoms: _308  and  _309
REMARK  127  A    between atoms: _314  and  _316
REMARK  128  A    between atoms: _316  and  _317
REMARK  129  A    between atoms: _316  and  _319
REMARK  130  A    between atoms: _319  and  _320
REMARK  131  A    between atoms: _323  and  _325
REMARK  132  A    between atoms: _325  and  _326
REMARK  133  A    between atoms: _328  and  _330
REMARK  134  A    between atoms: _330  and  _331
REMARK  135  A    between atoms: _334  and  _336
REMARK  136  A    between atoms: _336  and  _337
REMARK  137  A    between atoms: _336  and  _339
REMARK  138  A    between atoms: _339  and  _340
REMARK  139  A    between atoms: _343  and  _345
REMARK  140  A    between atoms: _345  and  _346
REMARK  141  A    between atoms: _345  and  _348
REMARK  142  A    between atoms: _348  and  _349
REMARK  143  A    between atoms: _352  and  _354
REMARK  144  A    between atoms: _354  and  _355
REMARK  145  A    between atoms: _354  and  _357
REMARK  146  A    between atoms: _357  and  _358
REMARK  147  A    between atoms: _361  and  _363
REMARK  148  A    between atoms: _363  and  _364
REMARK  149  A    between atoms: _363  and  _366
REMARK  150  A    between atoms: _369  and  _371
REMARK  151  A    between atoms: _371  and  _372
REMARK  152  A    between atoms: _371  and  _374
REMARK  153  A    between atoms: _374  and  _375
REMARK  154  A    between atoms: _375  and  _376
REMARK  155  A    between atoms: _376  and  _377
REMARK  156  A    between atoms: _377  and  _378
REMARK  157  A    between atoms: _382  and  _384
REMARK  158  A    between atoms: _384  and  _385
REMARK  159  A    between atoms: _384  and  _387
REMARK  160  A    between atoms: _387  and  _388
REMARK  161  A    between atoms: _388  and  _389
REMARK  162  A    between atoms: _391  and  _393
REMARK  163  A    between atoms: _393  and  _394
REMARK  164  A    between atoms: _393  and  _396
REMARK  165  A    between atoms: _396  and  _397
REMARK  166  A    between atoms: _400  and  _402
REMARK  167  A    between atoms: _402  and  _403
REMARK  168  A    between atoms: _405  and  _407
REMARK  169  A    between atoms: _407  and  _408
REMARK  170  A    between atoms: _410  and  _412
REMARK  171  A    between atoms: _412  and  _413
REMARK  172  A    between atoms: _412  and  _415
REMARK  173  A    between atoms: _415  and  _416
REMARK  174  A    between atoms: _419  and  _421
REMARK  175  A    between atoms: _421  and  _422
REMARK  176  A    between atoms: _424  and  _426
REMARK  177  A    between atoms: _426  and  _427
REMARK  178  A    between atoms: _429  and  _431
REMARK  179  A    between atoms: _431  and  _432
REMARK  180  A    between atoms: _431  and  _434
REMARK  181  A    between atoms: _434  and  _435
REMARK  182  A    between atoms: _441  and  _443
REMARK  183  A    between atoms: _443  and  _444
REMARK  184  A    between atoms: _443  and  _446
REMARK  185  A    between atoms: _446  and  _447
REMARK  186  A    between atoms: _450  and  _452
REMARK  187  A    between atoms: _452  and  _453
REMARK  188  A    between atoms: _452  and  _455
REMARK  189  A    between atoms: _458  and  _460
REMARK  190  A    between atoms: _460  and  _461
REMARK  191  A    between atoms: _460  and  _463
REMARK  192  A    between atoms: _463  and  _464
REMARK  193  A    between atoms: _468  and  _469
REMARK  194  A    between atoms: _474  and  _476
REMARK  195  A    between atoms: _476  and  _477
REMARK  196  A    between atoms: _476  and  _479
REMARK  197  A    between atoms: _479  and  _480
REMARK  198  A    between atoms: _484  and  _485
REMARK  199  A    between atoms: _490  and  _492
REMARK  200  A    between atoms: _492  and  _493
REMARK  201  A    between atoms: _492  and  _495
REMARK  202  A    between atoms: _498  and  _500
REMARK  203  A    between atoms: _500  and  _501
REMARK  204  A    between atoms: _500  and  _503
REMARK  205  A    between atoms: _503  and  _504
REMARK  206  A    between atoms: _509  and  _511
REMARK  207  A    between atoms: _511  and  _512
REMARK  208  A    between atoms: _511  and  _514
REMARK  209  A    between atoms: _514  and  _515
REMARK  210  A    between atoms: _518  and  _520
REMARK  211  A    between atoms: _520  and  _521
REMARK  212  A    between atoms: _520  and  _523
REMARK  213  A    between atoms: _523  and  _524
REMARK  214  A    between atoms: _527  and  _529
REMARK  215  A    between atoms: _529  and  _530
REMARK  216  A    between atoms: _532  and  _534
REMARK  217  A    between atoms: _534  and  _535
REMARK  218  A    between atoms: _534  and  _537
REMARK  219  A    between atoms: _537  and  _538
REMARK  220  A    between atoms: _538  and  _539
REMARK  221  A    between atoms: _539  and  _540
REMARK  222  A    between atoms: _549  and  _551
REMARK  223  A    between atoms: _551  and  _552
REMARK  224  A    between atoms: _551  and  _554
REMARK  225  A    between atoms: _554  and  _555
REMARK                            x       y       z     vdW  Elec       q    Type
REMARK                         _______ _______ _______ _____ _____    ______ ____
ROOT
ATOM      1  O   HOH     1      22.250  15.299  19.608  0.00  0.00    +0.000 OA
ENDROOT
TORSDOF 0
REMARK  Name = ../refined-set-2016/3bva/3bva_pocket.pdb
REMARK  225 active torsions:
REMARK  status: ('A' for Active; 'I' for Inactive)
REMARK    1  A    between atoms: _1  and  _3
REMARK    2  A    between atoms: _3  and  _4
REMARK    3  A    between atoms: _3  and  _6
REMARK    4  A    between atoms: _6  and  _7
REMARK    5  A    between atoms: _7  and  _8
REMARK    6  A    between atoms: _8  and  _9
REMARK    7  A    between atoms: _18  and  _20
REMARK    8  A    between atoms: _20  and  _21
REMARK    9  A    between atoms: _20  and  _23
REMARK   10  A    between atoms: _23  and  _24
REMARK   11  A    between atoms: _27  and  _29
REMARK   12  A    between atoms: _29  and  _30
REMARK   13  A    between atoms: _29  and  _32
REMARK   14  A    between atoms: _32  and  _33
REMARK   15  A    between atoms: _38  and  _40
REMARK   16  A    between atoms: _40  and  _41
REMARK   17  A    between atoms: _40  and  _43
REMARK   18  A    between atoms: _43  and  _44
REMARK   19  A    between atoms: _47  and  _49
REMARK   20  A    between atoms: _49  and  _50
REMARK   21  A    between atoms: _52  and  _54
REMARK   22  A    between atoms: _54  and  _55
REMARK   23  A    between atoms: _58  and  _60
REMARK   24  A    between atoms: _60  and  _61
REMARK   25  A    between atoms: _60  and  _63
REMARK   26  A    between atoms: _63  and  _64
REMARK   27  A    between atoms: _67  and  _69
REMARK   28  A    between atoms: _69  and  _70
REMARK   29  A    between atoms: _69  and  _72
REMARK   30  A    between atoms: _72  and  _73
REMARK   31  A    between atoms: _76  and  _78
REMARK   32  A    between atoms: _78  and  _79
REMARK   33  A    between atoms: _78  and  _81
REMARK   34  A    between atoms: _81  and  _82
REMARK   35  A    between atoms: _85  and  _87
REMARK   36  A    between atoms: _87  and  _88
REMARK   37  A    between atoms: _87  and  _90
REMARK   38  A    between atoms: _93  and  _95
REMARK   39  A    between atoms: _95  and  _96
REMARK   40  A    between atoms: _95  and  _98
REMARK   41  A    between atoms: _98  and  _99
REMARK   42  A    between atoms: _99  and  _100
REMARK   43  A    between atoms: _100  and  _101
REMARK   44  A    between atoms: _101  and  _102
REMARK   45  A    between atoms: _106  and  _108
REMARK   46  A    between atoms: _108  and  _109
REMARK   47  A    between atoms: _108  and  _111
REMARK   48  A    between atoms: _111  and  _112
REMARK   49  A    between atoms: _112  and  _113
REMARK   50  A    between atoms: _115  and  _117
REMARK   51  A    between atoms: _117  and  _118
REMARK   52  A    between atoms: _117  and  _120
REMARK   53  A    between atoms: _120  and  _121
REMARK   54  A    between atoms: _124  and  _126
REMARK   55  A    between atoms: _126  and  _127
REMARK   56  A    between atoms: _129  and  _131
REMARK   57  A    between atoms: _131  and  _132
REMARK   58  A    between atoms: _134  and  _136
REMARK   59  A    between atoms: _136  and  _137
REMARK   60  A    between atoms: _136  and  _139
REMARK   61  A    between atoms: _139  and  _140
REMARK   62  A    between atoms: _143  and  _145
REMARK   63  A    between atoms: _145  and  _146
REMARK   64  A    between atoms: _148  and  _150
REMARK   65  A    between atoms: _150  and  _151
REMARK   66  A    between atoms: _153  and  _155
REMARK   67  A    between atoms: _155  and  _156
REMARK   68  A    between atoms: _155  and  _158
REMARK   69  A    between atoms: _158  and  _159
REMARK   70  A    between atoms: _165  and  _167
REMARK   71  A    between atoms: _167  and  _168
REMARK   72  A    between atoms: _167  and  _170
REMARK   73  A    between atoms: _170  and  _171
REMARK   74  A    between atoms: _174  and  _176
REMARK   75  A    between atoms: _176  and  _177
REMARK   76  A    between atoms: _176  and  _179
REMARK   77  A    between atoms: _182  and  _184
REMARK   78  A    between atoms: _184  and  _185
REMARK   79  A    between atoms: _184  and  _187
REMARK   80  A    between atoms: _187  and  _188
REMARK   81  A    between atoms: _191  and  _193
REMARK   82  A    between atoms: _193  and  _194
REMARK   83  A    between atoms: _193  and  _196
REMARK   84  A    between atoms: _196  and  _197
REMARK   85  A    between atoms: _201  and  _202
REMARK   86  A    between atoms: _207  and  _209
REMARK   87  A    between atoms: _209  and  _210
REMARK   88  A    between atoms: _209  and  _212
REMARK   89  A    between atoms: _215  and  _217
REMARK   90  A    between atoms: _217  and  _218
REMARK   91  A    between atoms: _217  and  _220
REMARK   92  A    between atoms: _220  and  _221
REMARK   93  A    between atoms: _226  and  _228
REMARK   94  A    between atoms: _228  and  _229
REMARK   95  A    between atoms: _228  and  _231
REMARK   96  A    between atoms: _231  and  _232
REMARK   97  A    between atoms: _235  and  _237
REMARK   98  A    between atoms: _237  and  _238
REMARK   99  A    between atoms: _240  and  _242
REMARK  100  A    between atoms: _242  and  _243
REMARK  101  A    between atoms: _242  and  _245
REMARK  102  A    between atoms: _245  and  _246
REMARK  103  A    between atoms: _246  and  _247
REMARK  104  A    between atoms: _247  and  _248
REMARK  105  A    between atoms: _257  and  _259
REMARK  106  A    between atoms: _259  and  _260
REMARK  107  A    between atoms: _259  and  _262
REMARK  108  A    between atoms: _262  and  _263
REMARK  109  A    between atoms: _268  and  _270
REMARK  110  A    between atoms: _270  and  _271
REMARK  111  A    between atoms: _270  and  _273
REMARK  112  A    between atoms: _273  and  _274
REMARK  113  A    between atoms: _274  and  _275
REMARK  114  A    between atoms: _275  and  _276
REMARK  115  A    between atoms: _285  and  _287
REMARK  116  A    between atoms: _287  and  _288
REMARK  117  A    between atoms: _287  and  _290
REMARK  118  A    between atoms: _290  and  _291
REMARK  119  A    between atoms: _294  and  _296
REMARK  120  A    between atoms: _296  and  _297
REMARK  121  A    between atoms: _296  and  _299
REMARK  122  A    between atoms: _299  and  _300
REMARK  123  A    between atoms: _303  and  _305
REMARK  124  A    between atoms: _305  and  _306
REMARK  125  A    between atoms: _305  and  _308
REMARK  126  A    between atoms: _308  and  _309
REMARK  127  A    between atoms: _314  and  _316
REMARK  128  A    between atoms: _316  and  _317
REMARK  129  A    between atoms: _316  and  _319
REMARK  130  A    between atoms: _319  and  _320
REMARK  131  A    between atoms: _323  and  _325
REMARK  132  A    between atoms: _325  and  _326
REMARK  133  A    between atoms: _328  and  _330
REMARK  134  A    between atoms: _330  and  _331
REMARK  135  A    between atoms: _334  and  _336
REMARK  136  A    between atoms: _336  and  _337
REMARK  137  A    between atoms: _336  and  _339
REMARK  138  A    between atoms: _339  and  _340
REMARK  139  A    between atoms: _343  and  _345
REMARK  140  A    between atoms: _345  and  _346
REMARK  141  A    between atoms: _345  and  _348
REMARK  142  A    between atoms: _348  and  _349
REMARK  143  A    between atoms: _352  and  _354
REMARK  144  A    between atoms: _354  and  _355
REMARK  145  A    between atoms: _354  and  _357
REMARK  146  A    between atoms: _357  and  _358
REMARK  147  A    between atoms: _361  and  _363
REMARK  148  A    between atoms: _363  and  _364
REMARK  149  A    between atoms: _363  and  _366
REMARK  150  A    between atoms: _369  and  _371
REMARK  151  A    between atoms: _371  and  _372
REMARK  152  A    between atoms: _371  and  _374
REMARK  153  A    between atoms: _374  and  _375
REMARK  154  A    between atoms: _375  and  _376
REMARK  155  A    between atoms: _376  and  _377
REMARK  156  A    between atoms: _377  and  _378
REMARK  157  A    between atoms: _382  and  _384
REMARK  158  A    between atoms: _384  and  _385
REMARK  159  A    between atoms: _384  and  _387
REMARK  160  A    between atoms: _387  and  _388
REMARK  161  A    between atoms: _388  and  _389
REMARK  162  A    between atoms: _391  and  _393
REMARK  163  A    between atoms: _393  and  _394
REMARK  164  A    between atoms: _393  and  _396
REMARK  165  A    between atoms: _396  and  _397
REMARK  166  A    between atoms: _400  and  _402
REMARK  167  A    between atoms: _402  and  _403
REMARK  168  A    between atoms: _405  and  _407
REMARK  169  A    between atoms: _407  and  _408
REMARK  170  A    between atoms: _410  and  _412
REMARK  171  A    between atoms: _412  and  _413
REMARK  172  A    between atoms: _412  and  _415
REMARK  173  A    between atoms: _415  and  _416
REMARK  174  A    between atoms: _419  and  _421
REMARK  175  A    between atoms: _421  and  _422
REMARK  176  A    between atoms: _424  and  _426
REMARK  177  A    between atoms: _426  and  _427
REMARK  178  A    between atoms: _429  and  _431
REMARK  179  A    between atoms: _431  and  _432
REMARK  180  A    between atoms: _431  and  _434
REMARK  181  A    between atoms: _434  and  _435
REMARK  182  A    between atoms: _441  and  _443
REMARK  183  A    between atoms: _443  and  _444
REMARK  184  A    between atoms: _443  and  _446
REMARK  185  A    between atoms: _446  and  _447
REMARK  186  A    between atoms: _450  and  _452
REMARK  187  A    between atoms: _452  and  _453
REMARK  188  A    between atoms: _452  and  _455
REMARK  189  A    between atoms: _458  and  _460
REMARK  190  A    between atoms: _460  and  _461
REMARK  191  A    between atoms: _460  and  _463
REMARK  192  A    between atoms: _463  and  _464
REMARK  193  A    between atoms: _468  and  _469
REMARK  194  A    between atoms: _474  and  _476
REMARK  195  A    between atoms: _476  and  _477
REMARK  196  A    between atoms: _476  and  _479
REMARK  197  A    between atoms: _479  and  _480
REMARK  198  A    between atoms: _484  and  _485
REMARK  199  A    between atoms: _490  and  _492
REMARK  200  A    between atoms: _492  and  _493
REMARK  201  A    between atoms: _492  and  _495
REMARK  202  A    between atoms: _498  and  _500
REMARK  203  A    between atoms: _500  and  _501
REMARK  204  A    between atoms: _500  and  _503
REMARK  205  A    between atoms: _503  and  _504
REMARK  206  A    between atoms: _509  and  _511
REMARK  207  A    between atoms: _511  and  _512
REMARK  208  A    between atoms: _511  and  _514
REMARK  209  A    between atoms: _514  and  _515
REMARK  210  A    between atoms: _518  and  _520
REMARK  211  A    between atoms: _520  and  _521
REMARK  212  A    between atoms: _520  and  _523
REMARK  213  A    between atoms: _523  and  _524
REMARK  214  A    between atoms: _527  and  _529
REMARK  215  A    between atoms: _529  and  _530
REMARK  216  A    between atoms: _532  and  _534
REMARK  217  A    between atoms: _534  and  _535
REMARK  218  A    between atoms: _534  and  _537
REMARK  219  A    between atoms: _537  and  _538
REMARK  220  A    between atoms: _538  and  _539
REMARK  221  A    between atoms: _539  and  _540
REMARK  222  A    between atoms: _549  and  _551
REMARK  223  A    between atoms: _551  and  _552
REMARK  224  A    between atoms: _551  and  _554
REMARK  225  A    between atoms: _554  and  _555
REMARK                            x       y       z     vdW  Elec       q    Type
REMARK                         _______ _______ _______ _____ _____    ______ ____
ROOT
ATOM      1  O   HOH     1      25.423  31.061  17.259  0.00  0.00    +0.000 OA
ENDROOT
TORSDOF 0
REMARK  Name = ../refined-set-2016/3bva/3bva_pocket.pdb
REMARK  225 active torsions:
REMARK  status: ('A' for Active; 'I' for Inactive)
REMARK    1  A    between atoms: _1  and  _3
REMARK    2  A    between atoms: _3  and  _4
REMARK    3  A    between atoms: _3  and  _6
REMARK    4  A    between atoms: _6  and  _7
REMARK    5  A    between atoms: _7  and  _8
REMARK    6  A    between atoms: _8  and  _9
REMARK    7  A    between atoms: _18  and  _20
REMARK    8  A    between atoms: _20  and  _21
REMARK    9  A    between atoms: _20  and  _23
REMARK   10  A    between atoms: _23  and  _24
REMARK   11  A    between atoms: _27  and  _29
REMARK   12  A    between atoms: _29  and  _30
REMARK   13  A    between atoms: _29  and  _32
REMARK   14  A    between atoms: _32  and  _33
REMARK   15  A    between atoms: _38  and  _40
REMARK   16  A    between atoms: _40  and  _41
REMARK   17  A    between atoms: _40  and  _43
REMARK   18  A    between atoms: _43  and  _44
REMARK   19  A    between atoms: _47  and  _49
REMARK   20  A    between atoms: _49  and  _50
REMARK   21  A    between atoms: _52  and  _54
REMARK   22  A    between atoms: _54  and  _55
REMARK   23  A    between atoms: _58  and  _60
REMARK   24  A    between atoms: _60  and  _61
REMARK   25  A    between atoms: _60  and  _63
REMARK   26  A    between atoms: _63  and  _64
REMARK   27  A    between atoms: _67  and  _69
REMARK   28  A    between atoms: _69  and  _70
REMARK   29  A    between atoms: _69  and  _72
REMARK   30  A    between atoms: _72  and  _73
REMARK   31  A    between atoms: _76  and  _78
REMARK   32  A    between atoms: _78  and  _79
REMARK   33  A    between atoms: _78  and  _81
REMARK   34  A    between atoms: _81  and  _82
REMARK   35  A    between atoms: _85  and  _87
REMARK   36  A    between atoms: _87  and  _88
REMARK   37  A    between atoms: _87  and  _90
REMARK   38  A    between atoms: _93  and  _95
REMARK   39  A    between atoms: _95  and  _96
REMARK   40  A    between atoms: _95  and  _98
REMARK   41  A    between atoms: _98  and  _99
REMARK   42  A    between atoms: _99  and  _100
REMARK   43  A    between atoms: _100  and  _101
REMARK   44  A    between atoms: _101  and  _102
REMARK   45  A    between atoms: _106  and  _108
REMARK   46  A    between atoms: _108  and  _109
REMARK   47  A    between atoms: _108  and  _111
REMARK   48  A    between atoms: _111  and  _112
REMARK   49  A    between atoms: _112  and  _113
REMARK   50  A    between atoms: _115  and  _117
REMARK   51  A    between atoms: _117  and  _118
REMARK   52  A    between atoms: _117  and  _120
REMARK   53  A    between atoms: _120  and  _121
REMARK   54  A    between atoms: _124  and  _126
REMARK   55  A    between atoms: _126  and  _127
REMARK   56  A    between atoms: _129  and  _131
REMARK   57  A    between atoms: _131  and  _132
REMARK   58  A    between atoms: _134  and  _136
REMARK   59  A    between atoms: _136  and  _137
REMARK   60  A    between atoms: _136  and  _139
REMARK   61  A    between atoms: _139  and  _140
REMARK   62  A    between atoms: _143  and  _145
REMARK   63  A    between atoms: _145  and  _146
REMARK   64  A    between atoms: _148  and  _150
REMARK   65  A    between atoms: _150  and  _151
REMARK   66  A    between atoms: _153  and  _155
REMARK   67  A    between atoms: _155  and  _156
REMARK   68  A    between atoms: _155  and  _158
REMARK   69  A    between atoms: _158  and  _159
REMARK   70  A    between atoms: _165  and  _167
REMARK   71  A    between atoms: _167  and  _168
REMARK   72  A    between atoms: _167  and  _170
REMARK   73  A    between atoms: _170  and  _171
REMARK   74  A    between atoms: _174  and  _176
REMARK   75  A    between atoms: _176  and  _177
REMARK   76  A    between atoms: _176  and  _179
REMARK   77  A    between atoms: _182  and  _184
REMARK   78  A    between atoms: _184  and  _185
REMARK   79  A    between atoms: _184  and  _187
REMARK   80  A    between atoms: _187  and  _188
REMARK   81  A    between atoms: _191  and  _193
REMARK   82  A    between atoms: _193  and  _194
REMARK   83  A    between atoms: _193  and  _196
REMARK   84  A    between atoms: _196  and  _197
REMARK   85  A    between atoms: _201  and  _202
REMARK   86  A    between atoms: _207  and  _209
REMARK   87  A    between atoms: _209  and  _210
REMARK   88  A    between atoms: _209  and  _212
REMARK   89  A    between atoms: _215  and  _217
REMARK   90  A    between atoms: _217  and  _218
REMARK   91  A    between atoms: _217  and  _220
REMARK   92  A    between atoms: _220  and  _221
REMARK   93  A    between atoms: _226  and  _228
REMARK   94  A    between atoms: _228  and  _229
REMARK   95  A    between atoms: _228  and  _231
REMARK   96  A    between atoms: _231  and  _232
REMARK   97  A    between atoms: _235  and  _237
REMARK   98  A    between atoms: _237  and  _238
REMARK   99  A    between atoms: _240  and  _242
REMARK  100  A    between atoms: _242  and  _243
REMARK  101  A    between atoms: _242  and  _245
REMARK  102  A    between atoms: _245  and  _246
REMARK  103  A    between atoms: _246  and  _247
REMARK  104  A    between atoms: _247  and  _248
REMARK  105  A    between atoms: _257  and  _259
REMARK  106  A    between atoms: _259  and  _260
REMARK  107  A    between atoms: _259  and  _262
REMARK  108  A    between atoms: _262  and  _263
REMARK  109  A    between atoms: _268  and  _270
REMARK  110  A    between atoms: _270  and  _271
REMARK  111  A    between atoms: _270  and  _273
REMARK  112  A    between atoms: _273  and  _274
REMARK  113  A    between atoms: _274  and  _275
REMARK  114  A    between atoms: _275  and  _276
REMARK  115  A    between atoms: _285  and  _287
REMARK  116  A    between atoms: _287  and  _288
REMARK  117  A    between atoms: _287  and  _290
REMARK  118  A    between atoms: _290  and  _291
REMARK  119  A    between atoms: _294  and  _296
REMARK  120  A    between atoms: _296  and  _297
REMARK  121  A    between atoms: _296  and  _299
REMARK  122  A    between atoms: _299  and  _300
REMARK  123  A    between atoms: _303  and  _305
REMARK  124  A    between atoms: _305  and  _306
REMARK  125  A    between atoms: _305  and  _308
REMARK  126  A    between atoms: _308  and  _309
REMARK  127  A    between atoms: _314  and  _316
REMARK  128  A    between atoms: _316  and  _317
REMARK  129  A    between atoms: _316  and  _319
REMARK  130  A    between atoms: _319  and  _320
REMARK  131  A    between atoms: _323  and  _325
REMARK  132  A    between atoms: _325  and  _326
REMARK  133  A    between atoms: _328  and  _330
REMARK  134  A    between atoms: _330  and  _331
REMARK  135  A    between atoms: _334  and  _336
REMARK  136  A    between atoms: _336  and  _337
REMARK  137  A    between atoms: _336  and  _339
REMARK  138  A    between atoms: _339  and  _340
REMARK  139  A    between atoms: _343  and  _345
REMARK  140  A    between atoms: _345  and  _346
REMARK  141  A    between atoms: _345  and  _348
REMARK  142  A    between atoms: _348  and  _349
REMARK  143  A    between atoms: _352  and  _354
REMARK  144  A    between atoms: _354  and  _355
REMARK  145  A    between atoms: _354  and  _357
REMARK  146  A    between atoms: _357  and  _358
REMARK  147  A    between atoms: _361  and  _363
REMARK  148  A    between atoms: _363  and  _364
REMARK  149  A    between atoms: _363  and  _366
REMARK  150  A    between atoms: _369  and  _371
REMARK  151  A    between atoms: _371  and  _372
REMARK  152  A    between atoms: _371  and  _374
REMARK  153  A    between atoms: _374  and  _375
REMARK  154  A    between atoms: _375  and  _376
REMARK  155  A    between atoms: _376  and  _377
REMARK  156  A    between atoms: _377  and  _378
REMARK  157  A    between atoms: _382  and  _384
REMARK  158  A    between atoms: _384  and  _385
REMARK  159  A    between atoms: _384  and  _387
REMARK  160  A    between atoms: _387  and  _388
REMARK  161  A    between atoms: _388  and  _389
REMARK  162  A    between atoms: _391  and  _393
REMARK  163  A    between atoms: _393  and  _394
REMARK  164  A    between atoms: _393  and  _396
REMARK  165  A    between atoms: _396  and  _397
REMARK  166  A    between atoms: _400  and  _402
REMARK  167  A    between atoms: _402  and  _403
REMARK  168  A    between atoms: _405  and  _407
REMARK  169  A    between atoms: _407  and  _408
REMARK  170  A    between atoms: _410  and  _412
REMARK  171  A    between atoms: _412  and  _413
REMARK  172  A    between atoms: _412  and  _415
REMARK  173  A    between atoms: _415  and  _416
REMARK  174  A    between atoms: _419  and  _421
REMARK  175  A    between atoms: _421  and  _422
REMARK  176  A    between atoms: _424  and  _426
REMARK  177  A    between atoms: _426  and  _427
REMARK  178  A    between atoms: _429  and  _431
REMARK  179  A    between atoms: _431  and  _432
REMARK  180  A    between atoms: _431  and  _434
REMARK  181  A    between atoms: _434  and  _435
REMARK  182  A    between atoms: _441  and  _443
REMARK  183  A    between atoms: _443  and  _444
REMARK  184  A    between atoms: _443  and  _446
REMARK  185  A    between atoms: _446  and  _447
REMARK  186  A    between atoms: _450  and  _452
REMARK  187  A    between atoms: _452  and  _453
REMARK  188  A    between atoms: _452  and  _455
REMARK  189  A    between atoms: _458  and  _460
REMARK  190  A    between atoms: _460  and  _461
REMARK  191  A    between atoms: _460  and  _463
REMARK  192  A    between atoms: _463  and  _464
REMARK  193  A    between atoms: _468  and  _469
REMARK  194  A    between atoms: _474  and  _476
REMARK  195  A    between atoms: _476  and  _477
REMARK  196  A    between atoms: _476  and  _479
REMARK  197  A    between atoms: _479  and  _480
REMARK  198  A    between atoms: _484  and  _485
REMARK  199  A    between atoms: _490  and  _492
REMARK  200  A    between atoms: _492  and  _493
REMARK  201  A    between atoms: _492  and  _495
REMARK  202  A    between atoms: _498  and  _500
REMARK  203  A    between atoms: _500  and  _501
REMARK  204  A    between atoms: _500  and  _503
REMARK  205  A    between atoms: _503  and  _504
REMARK  206  A    between atoms: _509  and  _511
REMARK  207  A    between atoms: _511  and  _512
REMARK  208  A    between atoms: _511  and  _514
REMARK  209  A    between atoms: _514  and  _515
REMARK  210  A    between atoms: _518  and  _520
REMARK  211  A    between atoms: _520  and  _521
REMARK  212  A    between atoms: _520  and  _523
REMARK  213  A    between atoms: _523  and  _524
REMARK  214  A    between atoms: _527  and  _529
REMARK  215  A    between atoms: _529  and  _530
REMARK  216  A    between atoms: _532  and  _534
REMARK  217  A    between atoms: _534  and  _535
REMARK  218  A    between atoms: _534  and  _537
REMARK  219  A    between atoms: _537  and  _538
REMARK  220  A    between atoms: _538  and  _539
REMARK  221  A    between atoms: _539  and  _540
REMARK  222  A    between atoms: _549  and  _551
REMARK  223  A    between atoms: _551  and  _552
REMARK  224  A    between atoms: _551  and  _554
REMARK  225  A    between atoms: _554  and  _555
REMARK                            x       y       z     vdW  Elec       q    Type
REMARK                         _______ _______ _______ _____ _____    ______ ____
ROOT
ATOM      1  O   HOH     1      21.112  35.562  17.703  0.00  0.00    +0.000 OA
ENDROOT
TORSDOF 0
REMARK  Name = ../refined-set-2016/3bva/3bva_pocket.pdb
REMARK  225 active torsions:
REMARK  status: ('A' for Active; 'I' for Inactive)
REMARK    1  A    between atoms: _1  and  _3
REMARK    2  A    between atoms: _3  and  _4
REMARK    3  A    between atoms: _3  and  _6
REMARK    4  A    between atoms: _6  and  _7
REMARK    5  A    between atoms: _7  and  _8
REMARK    6  A    between atoms: _8  and  _9
REMARK    7  A    between atoms: _18  and  _20
REMARK    8  A    between atoms: _20  and  _21
REMARK    9  A    between atoms: _20  and  _23
REMARK   10  A    between atoms: _23  and  _24
REMARK   11  A    between atoms: _27  and  _29
REMARK   12  A    between atoms: _29  and  _30
REMARK   13  A    between atoms: _29  and  _32
REMARK   14  A    between atoms: _32  and  _33
REMARK   15  A    between atoms: _38  and  _40
REMARK   16  A    between atoms: _40  and  _41
REMARK   17  A    between atoms: _40  and  _43
REMARK   18  A    between atoms: _43  and  _44
REMARK   19  A    between atoms: _47  and  _49
REMARK   20  A    between atoms: _49  and  _50
REMARK   21  A    between atoms: _52  and  _54
REMARK   22  A    between atoms: _54  and  _55
REMARK   23  A    between atoms: _58  and  _60
REMARK   24  A    between atoms: _60  and  _61
REMARK   25  A    between atoms: _60  and  _63
REMARK   26  A    between atoms: _63  and  _64
REMARK   27  A    between atoms: _67  and  _69
REMARK   28  A    between atoms: _69  and  _70
REMARK   29  A    between atoms: _69  and  _72
REMARK   30  A    between atoms: _72  and  _73
REMARK   31  A    between atoms: _76  and  _78
REMARK   32  A    between atoms: _78  and  _79
REMARK   33  A    between atoms: _78  and  _81
REMARK   34  A    between atoms: _81  and  _82
REMARK   35  A    between atoms: _85  and  _87
REMARK   36  A    between atoms: _87  and  _88
REMARK   37  A    between atoms: _87  and  _90
REMARK   38  A    between atoms: _93  and  _95
REMARK   39  A    between atoms: _95  and  _96
REMARK   40  A    between atoms: _95  and  _98
REMARK   41  A    between atoms: _98  and  _99
REMARK   42  A    between atoms: _99  and  _100
REMARK   43  A    between atoms: _100  and  _101
REMARK   44  A    between atoms: _101  and  _102
REMARK   45  A    between atoms: _106  and  _108
REMARK   46  A    between atoms: _108  and  _109
REMARK   47  A    between atoms: _108  and  _111
REMARK   48  A    between atoms: _111  and  _112
REMARK   49  A    between atoms: _112  and  _113
REMARK   50  A    between atoms: _115  and  _117
REMARK   51  A    between atoms: _117  and  _118
REMARK   52  A    between atoms: _117  and  _120
REMARK   53  A    between atoms: _120  and  _121
REMARK   54  A    between atoms: _124  and  _126
REMARK   55  A    between atoms: _126  and  _127
REMARK   56  A    between atoms: _129  and  _131
REMARK   57  A    between atoms: _131  and  _132
REMARK   58  A    between atoms: _134  and  _136
REMARK   59  A    between atoms: _136  and  _137
REMARK   60  A    between atoms: _136  and  _139
REMARK   61  A    between atoms: _139  and  _140
REMARK   62  A    between atoms: _143  and  _145
REMARK   63  A    between atoms: _145  and  _146
REMARK   64  A    between atoms: _148  and  _150
REMARK   65  A    between atoms: _150  and  _151
REMARK   66  A    between atoms: _153  and  _155
REMARK   67  A    between atoms: _155  and  _156
REMARK   68  A    between atoms: _155  and  _158
REMARK   69  A    between atoms: _158  and  _159
REMARK   70  A    between atoms: _165  and  _167
REMARK   71  A    between atoms: _167  and  _168
REMARK   72  A    between atoms: _167  and  _170
REMARK   73  A    between atoms: _170  and  _171
REMARK   74  A    between atoms: _174  and  _176
REMARK   75  A    between atoms: _176  and  _177
REMARK   76  A    between atoms: _176  and  _179
REMARK   77  A    between atoms: _182  and  _184
REMARK   78  A    between atoms: _184  and  _185
REMARK   79  A    between atoms: _184  and  _187
REMARK   80  A    between atoms: _187  and  _188
REMARK   81  A    between atoms: _191  and  _193
REMARK   82  A    between atoms: _193  and  _194
REMARK   83  A    between atoms: _193  and  _196
REMARK   84  A    between atoms: _196  and  _197
REMARK   85  A    between atoms: _201  and  _202
REMARK   86  A    between atoms: _207  and  _209
REMARK   87  A    between atoms: _209  and  _210
REMARK   88  A    between atoms: _209  and  _212
REMARK   89  A    between atoms: _215  and  _217
REMARK   90  A    between atoms: _217  and  _218
REMARK   91  A    between atoms: _217  and  _220
REMARK   92  A    between atoms: _220  and  _221
REMARK   93  A    between atoms: _226  and  _228
REMARK   94  A    between atoms: _228  and  _229
REMARK   95  A    between atoms: _228  and  _231
REMARK   96  A    between atoms: _231  and  _232
REMARK   97  A    between atoms: _235  and  _237
REMARK   98  A    between atoms: _237  and  _238
REMARK   99  A    between atoms: _240  and  _242
REMARK  100  A    between atoms: _242  and  _243
REMARK  101  A    between atoms: _242  and  _245
REMARK  102  A    between atoms: _245  and  _246
REMARK  103  A    between atoms: _246  and  _247
REMARK  104  A    between atoms: _247  and  _248
REMARK  105  A    between atoms: _257  and  _259
REMARK  106  A    between atoms: _259  and  _260
REMARK  107  A    between atoms: _259  and  _262
REMARK  108  A    between atoms: _262  and  _263
REMARK  109  A    between atoms: _268  and  _270
REMARK  110  A    between atoms: _270  and  _271
REMARK  111  A    between atoms: _270  and  _273
REMARK  112  A    between atoms: _273  and  _274
REMARK  113  A    between atoms: _274  and  _275
REMARK  114  A    between atoms: _275  and  _276
REMARK  115  A    between atoms: _285  and  _287
REMARK  116  A    between atoms: _287  and  _288
REMARK  117  A    between atoms: _287  and  _290
REMARK  118  A    between atoms: _290  and  _291
REMARK  119  A    between atoms: _294  and  _296
REMARK  120  A    between atoms: _296  and  _297
REMARK  121  A    between atoms: _296  and  _299
REMARK  122  A    between atoms: _299  and  _300
REMARK  123  A    between atoms: _303  and  _305
REMARK  124  A    between atoms: _305  and  _306
REMARK  125  A    between atoms: _305  and  _308
REMARK  126  A    between atoms: _308  and  _309
REMARK  127  A    between atoms: _314  and  _316
REMARK  128  A    between atoms: _316  and  _317
REMARK  129  A    between atoms: _316  and  _319
REMARK  130  A    between atoms: _319  and  _320
REMARK  131  A    between atoms: _323  and  _325
REMARK  132  A    between atoms: _325  and  _326
REMARK  133  A    between atoms: _328  and  _330
REMARK  134  A    between atoms: _330  and  _331
REMARK  135  A    between atoms: _334  and  _336
REMARK  136  A    between atoms: _336  and  _337
REMARK  137  A    between atoms: _336  and  _339
REMARK  138  A    between atoms: _339  and  _340
REMARK  139  A    between atoms: _343  and  _345
REMARK  140  A    between atoms: _345  and  _346
REMARK  141  A    between atoms: _345  and  _348
REMARK  142  A    between atoms: _348  and  _349
REMARK  143  A    between atoms: _352  and  _354
REMARK  144  A    between atoms: _354  and  _355
REMARK  145  A    between atoms: _354  and  _357
REMARK  146  A    between atoms: _357  and  _358
REMARK  147  A    between atoms: _361  and  _363
REMARK  148  A    between atoms: _363  and  _364
REMARK  149  A    between atoms: _363  and  _366
REMARK  150  A    between atoms: _369  and  _371
REMARK  151  A    between atoms: _371  and  _372
REMARK  152  A    between atoms: _371  and  _374
REMARK  153  A    between atoms: _374  and  _375
REMARK  154  A    between atoms: _375  and  _376
REMARK  155  A    between atoms: _376  and  _377
REMARK  156  A    between atoms: _377  and  _378
REMARK  157  A    between atoms: _382  and  _384
REMARK  158  A    between atoms: _384  and  _385
REMARK  159  A    between atoms: _384  and  _387
REMARK  160  A    between atoms: _387  and  _388
REMARK  161  A    between atoms: _388  and  _389
REMARK  162  A    between atoms: _391  and  _393
REMARK  163  A    between atoms: _393  and  _394
REMARK  164  A    between atoms: _393  and  _396
REMARK  165  A    between atoms: _396  and  _397
REMARK  166  A    between atoms: _400  and  _402
REMARK  167  A    between atoms: _402  and  _403
REMARK  168  A    between atoms: _405  and  _407
REMARK  169  A    between atoms: _407  and  _408
REMARK  170  A    between atoms: _410  and  _412
REMARK  171  A    between atoms: _412  and  _413
REMARK  172  A    between atoms: _412  and  _415
REMARK  173  A    between atoms: _415  and  _416
REMARK  174  A    between atoms: _419  and  _421
REMARK  175  A    between atoms: _421  and  _422
REMARK  176  A    between atoms: _424  and  _426
REMARK  177  A    between atoms: _426  and  _427
REMARK  178  A    between atoms: _429  and  _431
REMARK  179  A    between atoms: _431  and  _432
REMARK  180  A    between atoms: _431  and  _434
REMARK  181  A    between atoms: _434  and  _435
REMARK  182  A    between atoms: _441  and  _443
REMARK  183  A    between atoms: _443  and  _444
REMARK  184  A    between atoms: _443  and  _446
REMARK  185  A    between atoms: _446  and  _447
REMARK  186  A    between atoms: _450  and  _452
REMARK  187  A    between atoms: _452  and  _453
REMARK  188  A    between atoms: _452  and  _455
REMARK  189  A    between atoms: _458  and  _460
REMARK  190  A    between atoms: _460  and  _461
REMARK  191  A    between atoms: _460  and  _463
REMARK  192  A    between atoms: _463  and  _464
REMARK  193  A    between atoms: _468  and  _469
REMARK  194  A    between atoms: _474  and  _476
REMARK  195  A    between atoms: _476  and  _477
REMARK  196  A    between atoms: _476  and  _479
REMARK  197  A    between atoms: _479  and  _480
REMARK  198  A    between atoms: _484  and  _485
REMARK  199  A    between atoms: _490  and  _492
REMARK  200  A    between atoms: _492  and  _493
REMARK  201  A    between atoms: _492  and  _495
REMARK  202  A    between atoms: _498  and  _500
REMARK  203  A    between atoms: _500  and  _501
REMARK  204  A    between atoms: _500  and  _503
REMARK  205  A    between atoms: _503  and  _504
REMARK  206  A    between atoms: _509  and  _511
REMARK  207  A    between atoms: _511  and  _512
REMARK  208  A    between atoms: _511  and  _514
REMARK  209  A    between atoms: _514  and  _515
REMARK  210  A    between atoms: _518  and  _520
REMARK  211  A    between atoms: _520  and  _521
REMARK  212  A    between atoms: _520  and  _523
REMARK  213  A    between atoms: _523  and  _524
REMARK  214  A    between atoms: _527  and  _529
REMARK  215  A    between atoms: _529  and  _530
REMARK  216  A    between atoms: _532  and  _534
REMARK  217  A    between atoms: _534  and  _535
REMARK  218  A    between atoms: _534  and  _537
REMARK  219  A    between atoms: _537  and  _538
REMARK  220  A    between atoms: _538  and  _539
REMARK  221  A    between atoms: _539  and  _540
REMARK  222  A    between atoms: _549  and  _551
REMARK  223  A    between atoms: _551  and  _552
REMARK  224  A    between atoms: _551  and  _554
REMARK  225  A    between atoms: _554  and  _555
REMARK                            x       y       z     vdW  Elec       q    Type
REMARK                         _______ _______ _______ _____ _____    ______ ____
ROOT
ATOM      1  O   HOH     1      25.076  33.386  11.350  0.00  0.00    +0.000 OA
ENDROOT
TORSDOF 0
REMARK  Name = ../refined-set-2016/3bva/3bva_pocket.pdb
REMARK  225 active torsions:
REMARK  status: ('A' for Active; 'I' for Inactive)
REMARK    1  A    between atoms: _1  and  _3
REMARK    2  A    between atoms: _3  and  _4
REMARK    3  A    between atoms: _3  and  _6
REMARK    4  A    between atoms: _6  and  _7
REMARK    5  A    between atoms: _7  and  _8
REMARK    6  A    between atoms: _8  and  _9
REMARK    7  A    between atoms: _18  and  _20
REMARK    8  A    between atoms: _20  and  _21
REMARK    9  A    between atoms: _20  and  _23
REMARK   10  A    between atoms: _23  and  _24
REMARK   11  A    between atoms: _27  and  _29
REMARK   12  A    between atoms: _29  and  _30
REMARK   13  A    between atoms: _29  and  _32
REMARK   14  A    between atoms: _32  and  _33
REMARK   15  A    between atoms: _38  and  _40
REMARK   16  A    between atoms: _40  and  _41
REMARK   17  A    between atoms: _40  and  _43
REMARK   18  A    between atoms: _43  and  _44
REMARK   19  A    between atoms: _47  and  _49
REMARK   20  A    between atoms: _49  and  _50
REMARK   21  A    between atoms: _52  and  _54
REMARK   22  A    between atoms: _54  and  _55
REMARK   23  A    between atoms: _58  and  _60
REMARK   24  A    between atoms: _60  and  _61
REMARK   25  A    between atoms: _60  and  _63
REMARK   26  A    between atoms: _63  and  _64
REMARK   27  A    between atoms: _67  and  _69
REMARK   28  A    between atoms: _69  and  _70
REMARK   29  A    between atoms: _69  and  _72
REMARK   30  A    between atoms: _72  and  _73
REMARK   31  A    between atoms: _76  and  _78
REMARK   32  A    between atoms: _78  and  _79
REMARK   33  A    between atoms: _78  and  _81
REMARK   34  A    between atoms: _81  and  _82
REMARK   35  A    between atoms: _85  and  _87
REMARK   36  A    between atoms: _87  and  _88
REMARK   37  A    between atoms: _87  and  _90
REMARK   38  A    between atoms: _93  and  _95
REMARK   39  A    between atoms: _95  and  _96
REMARK   40  A    between atoms: _95  and  _98
REMARK   41  A    between atoms: _98  and  _99
REMARK   42  A    between atoms: _99  and  _100
REMARK   43  A    between atoms: _100  and  _101
REMARK   44  A    between atoms: _101  and  _102
REMARK   45  A    between atoms: _106  and  _108
REMARK   46  A    between atoms: _108  and  _109
REMARK   47  A    between atoms: _108  and  _111
REMARK   48  A    between atoms: _111  and  _112
REMARK   49  A    between atoms: _112  and  _113
REMARK   50  A    between atoms: _115  and  _117
REMARK   51  A    between atoms: _117  and  _118
REMARK   52  A    between atoms: _117  and  _120
REMARK   53  A    between atoms: _120  and  _121
REMARK   54  A    between atoms: _124  and  _126
REMARK   55  A    between atoms: _126  and  _127
REMARK   56  A    between atoms: _129  and  _131
REMARK   57  A    between atoms: _131  and  _132
REMARK   58  A    between atoms: _134  and  _136
REMARK   59  A    between atoms: _136  and  _137
REMARK   60  A    between atoms: _136  and  _139
REMARK   61  A    between atoms: _139  and  _140
REMARK   62  A    between atoms: _143  and  _145
REMARK   63  A    between atoms: _145  and  _146
REMARK   64  A    between atoms: _148  and  _150
REMARK   65  A    between atoms: _150  and  _151
REMARK   66  A    between atoms: _153  and  _155
REMARK   67  A    between atoms: _155  and  _156
REMARK   68  A    between atoms: _155  and  _158
REMARK   69  A    between atoms: _158  and  _159
REMARK   70  A    between atoms: _165  and  _167
REMARK   71  A    between atoms: _167  and  _168
REMARK   72  A    between atoms: _167  and  _170
REMARK   73  A    between atoms: _170  and  _171
REMARK   74  A    between atoms: _174  and  _176
REMARK   75  A    between atoms: _176  and  _177
REMARK   76  A    between atoms: _176  and  _179
REMARK   77  A    between atoms: _182  and  _184
REMARK   78  A    between atoms: _184  and  _185
REMARK   79  A    between atoms: _184  and  _187
REMARK   80  A    between atoms: _187  and  _188
REMARK   81  A    between atoms: _191  and  _193
REMARK   82  A    between atoms: _193  and  _194
REMARK   83  A    between atoms: _193  and  _196
REMARK   84  A    between atoms: _196  and  _197
REMARK   85  A    between atoms: _201  and  _202
REMARK   86  A    between atoms: _207  and  _209
REMARK   87  A    between atoms: _209  and  _210
REMARK   88  A    between atoms: _209  and  _212
REMARK   89  A    between atoms: _215  and  _217
REMARK   90  A    between atoms: _217  and  _218
REMARK   91  A    between atoms: _217  and  _220
REMARK   92  A    between atoms: _220  and  _221
REMARK   93  A    between atoms: _226  and  _228
REMARK   94  A    between atoms: _228  and  _229
REMARK   95  A    between atoms: _228  and  _231
REMARK   96  A    between atoms: _231  and  _232
REMARK   97  A    between atoms: _235  and  _237
REMARK   98  A    between atoms: _237  and  _238
REMARK   99  A    between atoms: _240  and  _242
REMARK  100  A    between atoms: _242  and  _243
REMARK  101  A    between atoms: _242  and  _245
REMARK  102  A    between atoms: _245  and  _246
REMARK  103  A    between atoms: _246  and  _247
REMARK  104  A    between atoms: _247  and  _248
REMARK  105  A    between atoms: _257  and  _259
REMARK  106  A    between atoms: _259  and  _260
REMARK  107  A    between atoms: _259  and  _262
REMARK  108  A    between atoms: _262  and  _263
REMARK  109  A    between atoms: _268  and  _270
REMARK  110  A    between atoms: _270  and  _271
REMARK  111  A    between atoms: _270  and  _273
REMARK  112  A    between atoms: _273  and  _274
REMARK  113  A    between atoms: _274  and  _275
REMARK  114  A    between atoms: _275  and  _276
REMARK  115  A    between atoms: _285  and  _287
REMARK  116  A    between atoms: _287  and  _288
REMARK  117  A    between atoms: _287  and  _290
REMARK  118  A    between atoms: _290  and  _291
REMARK  119  A    between atoms: _294  and  _296
REMARK  120  A    between atoms: _296  and  _297
REMARK  121  A    between atoms: _296  and  _299
REMARK  122  A    between atoms: _299  and  _300
REMARK  123  A    between atoms: _303  and  _305
REMARK  124  A    between atoms: _305  and  _306
REMARK  125  A    between atoms: _305  and  _308
REMARK  126  A    between atoms: _308  and  _309
REMARK  127  A    between atoms: _314  and  _316
REMARK  128  A    between atoms: _316  and  _317
REMARK  129  A    between atoms: _316  and  _319
REMARK  130  A    between atoms: _319  and  _320
REMARK  131  A    between atoms: _323  and  _325
REMARK  132  A    between atoms: _325  and  _326
REMARK  133  A    between atoms: _328  and  _330
REMARK  134  A    between atoms: _330  and  _331
REMARK  135  A    between atoms: _334  and  _336
REMARK  136  A    between atoms: _336  and  _337
REMARK  137  A    between atoms: _336  and  _339
REMARK  138  A    between atoms: _339  and  _340
REMARK  139  A    between atoms: _343  and  _345
REMARK  140  A    between atoms: _345  and  _346
REMARK  141  A    between atoms: _345  and  _348
REMARK  142  A    between atoms: _348  and  _349
REMARK  143  A    between atoms: _352  and  _354
REMARK  144  A    between atoms: _354  and  _355
REMARK  145  A    between atoms: _354  and  _357
REMARK  146  A    between atoms: _357  and  _358
REMARK  147  A    between atoms: _361  and  _363
REMARK  148  A    between atoms: _363  and  _364
REMARK  149  A    between atoms: _363  and  _366
REMARK  150  A    between atoms: _369  and  _371
REMARK  151  A    between atoms: _371  and  _372
REMARK  152  A    between atoms: _371  and  _374
REMARK  153  A    between atoms: _374  and  _375
REMARK  154  A    between atoms: _375  and  _376
REMARK  155  A    between atoms: _376  and  _377
REMARK  156  A    between atoms: _377  and  _378
REMARK  157  A    between atoms: _382  and  _384
REMARK  158  A    between atoms: _384  and  _385
REMARK  159  A    between atoms: _384  and  _387
REMARK  160  A    between atoms: _387  and  _388
REMARK  161  A    between atoms: _388  and  _389
REMARK  162  A    between atoms: _391  and  _393
REMARK  163  A    between atoms: _393  and  _394
REMARK  164  A    between atoms: _393  and  _396
REMARK  165  A    between atoms: _396  and  _397
REMARK  166  A    between atoms: _400  and  _402
REMARK  167  A    between atoms: _402  and  _403
REMARK  168  A    between atoms: _405  and  _407
REMARK  169  A    between atoms: _407  and  _408
REMARK  170  A    between atoms: _410  and  _412
REMARK  171  A    between atoms: _412  and  _413
REMARK  172  A    between atoms: _412  and  _415
REMARK  173  A    between atoms: _415  and  _416
REMARK  174  A    between atoms: _419  and  _421
REMARK  175  A    between atoms: _421  and  _422
REMARK  176  A    between atoms: _424  and  _426
REMARK  177  A    between atoms: _426  and  _427
REMARK  178  A    between atoms: _429  and  _431
REMARK  179  A    between atoms: _431  and  _432
REMARK  180  A    between atoms: _431  and  _434
REMARK  181  A    between atoms: _434  and  _435
REMARK  182  A    between atoms: _441  and  _443
REMARK  183  A    between atoms: _443  and  _444
REMARK  184  A    between atoms: _443  and  _446
REMARK  185  A    between atoms: _446  and  _447
REMARK  186  A    between atoms: _450  and  _452
REMARK  187  A    between atoms: _452  and  _453
REMARK  188  A    between atoms: _452  and  _455
REMARK  189  A    between atoms: _458  and  _460
REMARK  190  A    between atoms: _460  and  _461
REMARK  191  A    between atoms: _460  and  _463
REMARK  192  A    between atoms: _463  and  _464
REMARK  193  A    between atoms: _468  and  _469
REMARK  194  A    between atoms: _474  and  _476
REMARK  195  A    between atoms: _476  and  _477
REMARK  196  A    between atoms: _476  and  _479
REMARK  197  A    between atoms: _479  and  _480
REMARK  198  A    between atoms: _484  and  _485
REMARK  199  A    between atoms: _490  and  _492
REMARK  200  A    between atoms: _492  and  _493
REMARK  201  A    between atoms: _492  and  _495
REMARK  202  A    between atoms: _498  and  _500
REMARK  203  A    between atoms: _500  and  _501
REMARK  204  A    between atoms: _500  and  _503
REMARK  205  A    between atoms: _503  and  _504
REMARK  206  A    between atoms: _509  and  _511
REMARK  207  A    between atoms: _511  and  _512
REMARK  208  A    between atoms: _511  and  _514
REMARK  209  A    between atoms: _514  and  _515
REMARK  210  A    between atoms: _518  and  _520
REMARK  211  A    between atoms: _520  and  _521
REMARK  212  A    between atoms: _520  and  _523
REMARK  213  A    between atoms: _523  and  _524
REMARK  214  A    between atoms: _527  and  _529
REMARK  215  A    between atoms: _529  and  _530
REMARK  216  A    between atoms: _532  and  _534
REMARK  217  A    between atoms: _534  and  _535
REMARK  218  A    between atoms: _534  and  _537
REMARK  219  A    between atoms: _537  and  _538
REMARK  220  A    between atoms: _538  and  _539
REMARK  221  A    between atoms: _539  and  _540
REMARK  222  A    between atoms: _549  and  _551
REMARK  223  A    between atoms: _551  and  _552
REMARK  224  A    between atoms: _551  and  _554
REMARK  225  A    between atoms: _554  and  _555
REMARK                            x       y       z     vdW  Elec       q    Type
REMARK                         _______ _______ _______ _____ _____    ______ ____
ROOT
ATOM      1  O   HOH     1       9.054  24.560   7.458  0.00  0.00    +0.000 OA
ENDROOT
TORSDOF 0
REMARK  Name = ../refined-set-2016/3bva/3bva_pocket.pdb
REMARK  225 active torsions:
REMARK  status: ('A' for Active; 'I' for Inactive)
REMARK    1  A    between atoms: _1  and  _3
REMARK    2  A    between atoms: _3  and  _4
REMARK    3  A    between atoms: _3  and  _6
REMARK    4  A    between atoms: _6  and  _7
REMARK    5  A    between atoms: _7  and  _8
REMARK    6  A    between atoms: _8  and  _9
REMARK    7  A    between atoms: _18  and  _20
REMARK    8  A    between atoms: _20  and  _21
REMARK    9  A    between atoms: _20  and  _23
REMARK   10  A    between atoms: _23  and  _24
REMARK   11  A    between atoms: _27  and  _29
REMARK   12  A    between atoms: _29  and  _30
REMARK   13  A    between atoms: _29  and  _32
REMARK   14  A    between atoms: _32  and  _33
REMARK   15  A    between atoms: _38  and  _40
REMARK   16  A    between atoms: _40  and  _41
REMARK   17  A    between atoms: _40  and  _43
REMARK   18  A    between atoms: _43  and  _44
REMARK   19  A    between atoms: _47  and  _49
REMARK   20  A    between atoms: _49  and  _50
REMARK   21  A    between atoms: _52  and  _54
REMARK   22  A    between atoms: _54  and  _55
REMARK   23  A    between atoms: _58  and  _60
REMARK   24  A    between atoms: _60  and  _61
REMARK   25  A    between atoms: _60  and  _63
REMARK   26  A    between atoms: _63  and  _64
REMARK   27  A    between atoms: _67  and  _69
REMARK   28  A    between atoms: _69  and  _70
REMARK   29  A    between atoms: _69  and  _72
REMARK   30  A    between atoms: _72  and  _73
REMARK   31  A    between atoms: _76  and  _78
REMARK   32  A    between atoms: _78  and  _79
REMARK   33  A    between atoms: _78  and  _81
REMARK   34  A    between atoms: _81  and  _82
REMARK   35  A    between atoms: _85  and  _87
REMARK   36  A    between atoms: _87  and  _88
REMARK   37  A    between atoms: _87  and  _90
REMARK   38  A    between atoms: _93  and  _95
REMARK   39  A    between atoms: _95  and  _96
REMARK   40  A    between atoms: _95  and  _98
REMARK   41  A    between atoms: _98  and  _99
REMARK   42  A    between atoms: _99  and  _100
REMARK   43  A    between atoms: _100  and  _101
REMARK   44  A    between atoms: _101  and  _102
REMARK   45  A    between atoms: _106  and  _108
REMARK   46  A    between atoms: _108  and  _109
REMARK   47  A    between atoms: _108  and  _111
REMARK   48  A    between atoms: _111  and  _112
REMARK   49  A    between atoms: _112  and  _113
REMARK   50  A    between atoms: _115  and  _117
REMARK   51  A    between atoms: _117  and  _118
REMARK   52  A    between atoms: _117  and  _120
REMARK   53  A    between atoms: _120  and  _121
REMARK   54  A    between atoms: _124  and  _126
REMARK   55  A    between atoms: _126  and  _127
REMARK   56  A    between atoms: _129  and  _131
REMARK   57  A    between atoms: _131  and  _132
REMARK   58  A    between atoms: _134  and  _136
REMARK   59  A    between atoms: _136  and  _137
REMARK   60  A    between atoms: _136  and  _139
REMARK   61  A    between atoms: _139  and  _140
REMARK   62  A    between atoms: _143  and  _145
REMARK   63  A    between atoms: _145  and  _146
REMARK   64  A    between atoms: _148  and  _150
REMARK   65  A    between atoms: _150  and  _151
REMARK   66  A    between atoms: _153  and  _155
REMARK   67  A    between atoms: _155  and  _156
REMARK   68  A    between atoms: _155  and  _158
REMARK   69  A    between atoms: _158  and  _159
REMARK   70  A    between atoms: _165  and  _167
REMARK   71  A    between atoms: _167  and  _168
REMARK   72  A    between atoms: _167  and  _170
REMARK   73  A    between atoms: _170  and  _171
REMARK   74  A    between atoms: _174  and  _176
REMARK   75  A    between atoms: _176  and  _177
REMARK   76  A    between atoms: _176  and  _179
REMARK   77  A    between atoms: _182  and  _184
REMARK   78  A    between atoms: _184  and  _185
REMARK   79  A    between atoms: _184  and  _187
REMARK   80  A    between atoms: _187  and  _188
REMARK   81  A    between atoms: _191  and  _193
REMARK   82  A    between atoms: _193  and  _194
REMARK   83  A    between atoms: _193  and  _196
REMARK   84  A    between atoms: _196  and  _197
REMARK   85  A    between atoms: _201  and  _202
REMARK   86  A    between atoms: _207  and  _209
REMARK   87  A    between atoms: _209  and  _210
REMARK   88  A    between atoms: _209  and  _212
REMARK   89  A    between atoms: _215  and  _217
REMARK   90  A    between atoms: _217  and  _218
REMARK   91  A    between atoms: _217  and  _220
REMARK   92  A    between atoms: _220  and  _221
REMARK   93  A    between atoms: _226  and  _228
REMARK   94  A    between atoms: _228  and  _229
REMARK   95  A    between atoms: _228  and  _231
REMARK   96  A    between atoms: _231  and  _232
REMARK   97  A    between atoms: _235  and  _237
REMARK   98  A    between atoms: _237  and  _238
REMARK   99  A    between atoms: _240  and  _242
REMARK  100  A    between atoms: _242  and  _243
REMARK  101  A    between atoms: _242  and  _245
REMARK  102  A    between atoms: _245  and  _246
REMARK  103  A    between atoms: _246  and  _247
REMARK  104  A    between atoms: _247  and  _248
REMARK  105  A    between atoms: _257  and  _259
REMARK  106  A    between atoms: _259  and  _260
REMARK  107  A    between atoms: _259  and  _262
REMARK  108  A    between atoms: _262  and  _263
REMARK  109  A    between atoms: _268  and  _270
REMARK  110  A    between atoms: _270  and  _271
REMARK  111  A    between atoms: _270  and  _273
REMARK  112  A    between atoms: _273  and  _274
REMARK  113  A    between atoms: _274  and  _275
REMARK  114  A    between atoms: _275  and  _276
REMARK  115  A    between atoms: _285  and  _287
REMARK  116  A    between atoms: _287  and  _288
REMARK  117  A    between atoms: _287  and  _290
REMARK  118  A    between atoms: _290  and  _291
REMARK  119  A    between atoms: _294  and  _296
REMARK  120  A    between atoms: _296  and  _297
REMARK  121  A    between atoms: _296  and  _299
REMARK  122  A    between atoms: _299  and  _300
REMARK  123  A    between atoms: _303  and  _305
REMARK  124  A    between atoms: _305  and  _306
REMARK  125  A    between atoms: _305  and  _308
REMARK  126  A    between atoms: _308  and  _309
REMARK  127  A    between atoms: _314  and  _316
REMARK  128  A    between atoms: _316  and  _317
REMARK  129  A    between atoms: _316  and  _319
REMARK  130  A    between atoms: _319  and  _320
REMARK  131  A    between atoms: _323  and  _325
REMARK  132  A    between atoms: _325  and  _326
REMARK  133  A    between atoms: _328  and  _330
REMARK  134  A    between atoms: _330  and  _331
REMARK  135  A    between atoms: _334  and  _336
REMARK  136  A    between atoms: _336  and  _337
REMARK  137  A    between atoms: _336  and  _339
REMARK  138  A    between atoms: _339  and  _340
REMARK  139  A    between atoms: _343  and  _345
REMARK  140  A    between atoms: _345  and  _346
REMARK  141  A    between atoms: _345  and  _348
REMARK  142  A    between atoms: _348  and  _349
REMARK  143  A    between atoms: _352  and  _354
REMARK  144  A    between atoms: _354  and  _355
REMARK  145  A    between atoms: _354  and  _357
REMARK  146  A    between atoms: _357  and  _358
REMARK  147  A    between atoms: _361  and  _363
REMARK  148  A    between atoms: _363  and  _364
REMARK  149  A    between atoms: _363  and  _366
REMARK  150  A    between atoms: _369  and  _371
REMARK  151  A    between atoms: _371  and  _372
REMARK  152  A    between atoms: _371  and  _374
REMARK  153  A    between atoms: _374  and  _375
REMARK  154  A    between atoms: _375  and  _376
REMARK  155  A    between atoms: _376  and  _377
REMARK  156  A    between atoms: _377  and  _378
REMARK  157  A    between atoms: _382  and  _384
REMARK  158  A    between atoms: _384  and  _385
REMARK  159  A    between atoms: _384  and  _387
REMARK  160  A    between atoms: _387  and  _388
REMARK  161  A    between atoms: _388  and  _389
REMARK  162  A    between atoms: _391  and  _393
REMARK  163  A    between atoms: _393  and  _394
REMARK  164  A    between atoms: _393  and  _396
REMARK  165  A    between atoms: _396  and  _397
REMARK  166  A    between atoms: _400  and  _402
REMARK  167  A    between atoms: _402  and  _403
REMARK  168  A    between atoms: _405  and  _407
REMARK  169  A    between atoms: _407  and  _408
REMARK  170  A    between atoms: _410  and  _412
REMARK  171  A    between atoms: _412  and  _413
REMARK  172  A    between atoms: _412  and  _415
REMARK  173  A    between atoms: _415  and  _416
REMARK  174  A    between atoms: _419  and  _421
REMARK  175  A    between atoms: _421  and  _422
REMARK  176  A    between atoms: _424  and  _426
REMARK  177  A    between atoms: _426  and  _427
REMARK  178  A    between atoms: _429  and  _431
REMARK  179  A    between atoms: _431  and  _432
REMARK  180  A    between atoms: _431  and  _434
REMARK  181  A    between atoms: _434  and  _435
REMARK  182  A    between atoms: _441  and  _443
REMARK  183  A    between atoms: _443  and  _444
REMARK  184  A    between atoms: _443  and  _446
REMARK  185  A    between atoms: _446  and  _447
REMARK  186  A    between atoms: _450  and  _452
REMARK  187  A    between atoms: _452  and  _453
REMARK  188  A    between atoms: _452  and  _455
REMARK  189  A    between atoms: _458  and  _460
REMARK  190  A    between atoms: _460  and  _461
REMARK  191  A    between atoms: _460  and  _463
REMARK  192  A    between atoms: _463  and  _464
REMARK  193  A    between atoms: _468  and  _469
REMARK  194  A    between atoms: _474  and  _476
REMARK  195  A    between atoms: _476  and  _477
REMARK  196  A    between atoms: _476  and  _479
REMARK  197  A    between atoms: _479  and  _480
REMARK  198  A    between atoms: _484  and  _485
REMARK  199  A    between atoms: _490  and  _492
REMARK  200  A    between atoms: _492  and  _493
REMARK  201  A    between atoms: _492  and  _495
REMARK  202  A    between atoms: _498  and  _500
REMARK  203  A    between atoms: _500  and  _501
REMARK  204  A    between atoms: _500  and  _503
REMARK  205  A    between atoms: _503  and  _504
REMARK  206  A    between atoms: _509  and  _511
REMARK  207  A    between atoms: _511  and  _512
REMARK  208  A    between atoms: _511  and  _514
REMARK  209  A    between atoms: _514  and  _515
REMARK  210  A    between atoms: _518  and  _520
REMARK  211  A    between atoms: _520  and  _521
REMARK  212  A    between atoms: _520  and  _523
REMARK  213  A    between atoms: _523  and  _524
REMARK  214  A    between atoms: _527  and  _529
REMARK  215  A    between atoms: _529  and  _530
REMARK  216  A    between atoms: _532  and  _534
REMARK  217  A    between atoms: _534  and  _535
REMARK  218  A    between atoms: _534  and  _537
REMARK  219  A    between atoms: _537  and  _538
REMARK  220  A    between atoms: _538  and  _539
REMARK  221  A    between atoms: _539  and  _540
REMARK  222  A    between atoms: _549  and  _551
REMARK  223  A    between atoms: _551  and  _552
REMARK  224  A    between atoms: _551  and  _554
REMARK  225  A    between atoms: _554  and  _555
REMARK                            x       y       z     vdW  Elec       q    Type
REMARK                         _______ _______ _______ _____ _____    ______ ____
ROOT
ATOM      1  O   HOH     1      22.735  34.473  12.321  0.00  0.00    +0.000 OA
ENDROOT
TORSDOF 0
REMARK  Name = ../refined-set-2016/3bva/3bva_pocket.pdb
REMARK  225 active torsions:
REMARK  status: ('A' for Active; 'I' for Inactive)
REMARK    1  A    between atoms: _1  and  _3
REMARK    2  A    between atoms: _3  and  _4
REMARK    3  A    between atoms: _3  and  _6
REMARK    4  A    between atoms: _6  and  _7
REMARK    5  A    between atoms: _7  and  _8
REMARK    6  A    between atoms: _8  and  _9
REMARK    7  A    between atoms: _18  and  _20
REMARK    8  A    between atoms: _20  and  _21
REMARK    9  A    between atoms: _20  and  _23
REMARK   10  A    between atoms: _23  and  _24
REMARK   11  A    between atoms: _27  and  _29
REMARK   12  A    between atoms: _29  and  _30
REMARK   13  A    between atoms: _29  and  _32
REMARK   14  A    between atoms: _32  and  _33
REMARK   15  A    between atoms: _38  and  _40
REMARK   16  A    between atoms: _40  and  _41
REMARK   17  A    between atoms: _40  and  _43
REMARK   18  A    between atoms: _43  and  _44
REMARK   19  A    between atoms: _47  and  _49
REMARK   20  A    between atoms: _49  and  _50
REMARK   21  A    between atoms: _52  and  _54
REMARK   22  A    between atoms: _54  and  _55
REMARK   23  A    between atoms: _58  and  _60
REMARK   24  A    between atoms: _60  and  _61
REMARK   25  A    between atoms: _60  and  _63
REMARK   26  A    between atoms: _63  and  _64
REMARK   27  A    between atoms: _67  and  _69
REMARK   28  A    between atoms: _69  and  _70
REMARK   29  A    between atoms: _69  and  _72
REMARK   30  A    between atoms: _72  and  _73
REMARK   31  A    between atoms: _76  and  _78
REMARK   32  A    between atoms: _78  and  _79
REMARK   33  A    between atoms: _78  and  _81
REMARK   34  A    between atoms: _81  and  _82
REMARK   35  A    between atoms: _85  and  _87
REMARK   36  A    between atoms: _87  and  _88
REMARK   37  A    between atoms: _87  and  _90
REMARK   38  A    between atoms: _93  and  _95
REMARK   39  A    between atoms: _95  and  _96
REMARK   40  A    between atoms: _95  and  _98
REMARK   41  A    between atoms: _98  and  _99
REMARK   42  A    between atoms: _99  and  _100
REMARK   43  A    between atoms: _100  and  _101
REMARK   44  A    between atoms: _101  and  _102
REMARK   45  A    between atoms: _106  and  _108
REMARK   46  A    between atoms: _108  and  _109
REMARK   47  A    between atoms: _108  and  _111
REMARK   48  A    between atoms: _111  and  _112
REMARK   49  A    between atoms: _112  and  _113
REMARK   50  A    between atoms: _115  and  _117
REMARK   51  A    between atoms: _117  and  _118
REMARK   52  A    between atoms: _117  and  _120
REMARK   53  A    between atoms: _120  and  _121
REMARK   54  A    between atoms: _124  and  _126
REMARK   55  A    between atoms: _126  and  _127
REMARK   56  A    between atoms: _129  and  _131
REMARK   57  A    between atoms: _131  and  _132
REMARK   58  A    between atoms: _134  and  _136
REMARK   59  A    between atoms: _136  and  _137
REMARK   60  A    between atoms: _136  and  _139
REMARK   61  A    between atoms: _139  and  _140
REMARK   62  A    between atoms: _143  and  _145
REMARK   63  A    between atoms: _145  and  _146
REMARK   64  A    between atoms: _148  and  _150
REMARK   65  A    between atoms: _150  and  _151
REMARK   66  A    between atoms: _153  and  _155
REMARK   67  A    between atoms: _155  and  _156
REMARK   68  A    between atoms: _155  and  _158
REMARK   69  A    between atoms: _158  and  _159
REMARK   70  A    between atoms: _165  and  _167
REMARK   71  A    between atoms: _167  and  _168
REMARK   72  A    between atoms: _167  and  _170
REMARK   73  A    between atoms: _170  and  _171
REMARK   74  A    between atoms: _174  and  _176
REMARK   75  A    between atoms: _176  and  _177
REMARK   76  A    between atoms: _176  and  _179
REMARK   77  A    between atoms: _182  and  _184
REMARK   78  A    between atoms: _184  and  _185
REMARK   79  A    between atoms: _184  and  _187
REMARK   80  A    between atoms: _187  and  _188
REMARK   81  A    between atoms: _191  and  _193
REMARK   82  A    between atoms: _193  and  _194
REMARK   83  A    between atoms: _193  and  _196
REMARK   84  A    between atoms: _196  and  _197
REMARK   85  A    between atoms: _201  and  _202
REMARK   86  A    between atoms: _207  and  _209
REMARK   87  A    between atoms: _209  and  _210
REMARK   88  A    between atoms: _209  and  _212
REMARK   89  A    between atoms: _215  and  _217
REMARK   90  A    between atoms: _217  and  _218
REMARK   91  A    between atoms: _217  and  _220
REMARK   92  A    between atoms: _220  and  _221
REMARK   93  A    between atoms: _226  and  _228
REMARK   94  A    between atoms: _228  and  _229
REMARK   95  A    between atoms: _228  and  _231
REMARK   96  A    between atoms: _231  and  _232
REMARK   97  A    between atoms: _235  and  _237
REMARK   98  A    between atoms: _237  and  _238
REMARK   99  A    between atoms: _240  and  _242
REMARK  100  A    between atoms: _242  and  _243
REMARK  101  A    between atoms: _242  and  _245
REMARK  102  A    between atoms: _245  and  _246
REMARK  103  A    between atoms: _246  and  _247
REMARK  104  A    between atoms: _247  and  _248
REMARK  105  A    between atoms: _257  and  _259
REMARK  106  A    between atoms: _259  and  _260
REMARK  107  A    between atoms: _259  and  _262
REMARK  108  A    between atoms: _262  and  _263
REMARK  109  A    between atoms: _268  and  _270
REMARK  110  A    between atoms: _270  and  _271
REMARK  111  A    between atoms: _270  and  _273
REMARK  112  A    between atoms: _273  and  _274
REMARK  113  A    between atoms: _274  and  _275
REMARK  114  A    between atoms: _275  and  _276
REMARK  115  A    between atoms: _285  and  _287
REMARK  116  A    between atoms: _287  and  _288
REMARK  117  A    between atoms: _287  and  _290
REMARK  118  A    between atoms: _290  and  _291
REMARK  119  A    between atoms: _294  and  _296
REMARK  120  A    between atoms: _296  and  _297
REMARK  121  A    between atoms: _296  and  _299
REMARK  122  A    between atoms: _299  and  _300
REMARK  123  A    between atoms: _303  and  _305
REMARK  124  A    between atoms: _305  and  _306
REMARK  125  A    between atoms: _305  and  _308
REMARK  126  A    between atoms: _308  and  _309
REMARK  127  A    between atoms: _314  and  _316
REMARK  128  A    between atoms: _316  and  _317
REMARK  129  A    between atoms: _316  and  _319
REMARK  130  A    between atoms: _319  and  _320
REMARK  131  A    between atoms: _323  and  _325
REMARK  132  A    between atoms: _325  and  _326
REMARK  133  A    between atoms: _328  and  _330
REMARK  134  A    between atoms: _330  and  _331
REMARK  135  A    between atoms: _334  and  _336
REMARK  136  A    between atoms: _336  and  _337
REMARK  137  A    between atoms: _336  and  _339
REMARK  138  A    between atoms: _339  and  _340
REMARK  139  A    between atoms: _343  and  _345
REMARK  140  A    between atoms: _345  and  _346
REMARK  141  A    between atoms: _345  and  _348
REMARK  142  A    between atoms: _348  and  _349
REMARK  143  A    between atoms: _352  and  _354
REMARK  144  A    between atoms: _354  and  _355
REMARK  145  A    between atoms: _354  and  _357
REMARK  146  A    between atoms: _357  and  _358
REMARK  147  A    between atoms: _361  and  _363
REMARK  148  A    between atoms: _363  and  _364
REMARK  149  A    between atoms: _363  and  _366
REMARK  150  A    between atoms: _369  and  _371
REMARK  151  A    between atoms: _371  and  _372
REMARK  152  A    between atoms: _371  and  _374
REMARK  153  A    between atoms: _374  and  _375
REMARK  154  A    between atoms: _375  and  _376
REMARK  155  A    between atoms: _376  and  _377
REMARK  156  A    between atoms: _377  and  _378
REMARK  157  A    between atoms: _382  and  _384
REMARK  158  A    between atoms: _384  and  _385
REMARK  159  A    between atoms: _384  and  _387
REMARK  160  A    between atoms: _387  and  _388
REMARK  161  A    between atoms: _388  and  _389
REMARK  162  A    between atoms: _391  and  _393
REMARK  163  A    between atoms: _393  and  _394
REMARK  164  A    between atoms: _393  and  _396
REMARK  165  A    between atoms: _396  and  _397
REMARK  166  A    between atoms: _400  and  _402
REMARK  167  A    between atoms: _402  and  _403
REMARK  168  A    between atoms: _405  and  _407
REMARK  169  A    between atoms: _407  and  _408
REMARK  170  A    between atoms: _410  and  _412
REMARK  171  A    between atoms: _412  and  _413
REMARK  172  A    between atoms: _412  and  _415
REMARK  173  A    between atoms: _415  and  _416
REMARK  174  A    between atoms: _419  and  _421
REMARK  175  A    between atoms: _421  and  _422
REMARK  176  A    between atoms: _424  and  _426
REMARK  177  A    between atoms: _426  and  _427
REMARK  178  A    between atoms: _429  and  _431
REMARK  179  A    between atoms: _431  and  _432
REMARK  180  A    between atoms: _431  and  _434
REMARK  181  A    between atoms: _434  and  _435
REMARK  182  A    between atoms: _441  and  _443
REMARK  183  A    between atoms: _443  and  _444
REMARK  184  A    between atoms: _443  and  _446
REMARK  185  A    between atoms: _446  and  _447
REMARK  186  A    between atoms: _450  and  _452
REMARK  187  A    between atoms: _452  and  _453
REMARK  188  A    between atoms: _452  and  _455
REMARK  189  A    between atoms: _458  and  _460
REMARK  190  A    between atoms: _460  and  _461
REMARK  191  A    between atoms: _460  and  _463
REMARK  192  A    between atoms: _463  and  _464
REMARK  193  A    between atoms: _468  and  _469
REMARK  194  A    between atoms: _474  and  _476
REMARK  195  A    between atoms: _476  and  _477
REMARK  196  A    between atoms: _476  and  _479
REMARK  197  A    between atoms: _479  and  _480
REMARK  198  A    between atoms: _484  and  _485
REMARK  199  A    between atoms: _490  and  _492
REMARK  200  A    between atoms: _492  and  _493
REMARK  201  A    between atoms: _492  and  _495
REMARK  202  A    between atoms: _498  and  _500
REMARK  203  A    between atoms: _500  and  _501
REMARK  204  A    between atoms: _500  and  _503
REMARK  205  A    between atoms: _503  and  _504
REMARK  206  A    between atoms: _509  and  _511
REMARK  207  A    between atoms: _511  and  _512
REMARK  208  A    between atoms: _511  and  _514
REMARK  209  A    between atoms: _514  and  _515
REMARK  210  A    between atoms: _518  and  _520
REMARK  211  A    between atoms: _520  and  _521
REMARK  212  A    between atoms: _520  and  _523
REMARK  213  A    between atoms: _523  and  _524
REMARK  214  A    between atoms: _527  and  _529
REMARK  215  A    between atoms: _529  and  _530
REMARK  216  A    between atoms: _532  and  _534
REMARK  217  A    between atoms: _534  and  _535
REMARK  218  A    between atoms: _534  and  _537
REMARK  219  A    between atoms: _537  and  _538
REMARK  220  A    between atoms: _538  and  _539
REMARK  221  A    between atoms: _539  and  _540
REMARK  222  A    between atoms: _549  and  _551
REMARK  223  A    between atoms: _551  and  _552
REMARK  224  A    between atoms: _551  and  _554
REMARK  225  A    between atoms: _554  and  _555
REMARK                            x       y       z     vdW  Elec       q    Type
REMARK                         _______ _______ _______ _____ _____    ______ ____
ROOT
ATOM      1  O   HOH     1      24.843  33.189  15.499  0.00  0.00    +0.000 OA
ENDROOT
TORSDOF 0
REMARK  Name = ../refined-set-2016/3bva/3bva_pocket.pdb
REMARK  225 active torsions:
REMARK  status: ('A' for Active; 'I' for Inactive)
REMARK    1  A    between atoms: _1  and  _3
REMARK    2  A    between atoms: _3  and  _4
REMARK    3  A    between atoms: _3  and  _6
REMARK    4  A    between atoms: _6  and  _7
REMARK    5  A    between atoms: _7  and  _8
REMARK    6  A    between atoms: _8  and  _9
REMARK    7  A    between atoms: _18  and  _20
REMARK    8  A    between atoms: _20  and  _21
REMARK    9  A    between atoms: _20  and  _23
REMARK   10  A    between atoms: _23  and  _24
REMARK   11  A    between atoms: _27  and  _29
REMARK   12  A    between atoms: _29  and  _30
REMARK   13  A    between atoms: _29  and  _32
REMARK   14  A    between atoms: _32  and  _33
REMARK   15  A    between atoms: _38  and  _40
REMARK   16  A    between atoms: _40  and  _41
REMARK   17  A    between atoms: _40  and  _43
REMARK   18  A    between atoms: _43  and  _44
REMARK   19  A    between atoms: _47  and  _49
REMARK   20  A    between atoms: _49  and  _50
REMARK   21  A    between atoms: _52  and  _54
REMARK   22  A    between atoms: _54  and  _55
REMARK   23  A    between atoms: _58  and  _60
REMARK   24  A    between atoms: _60  and  _61
REMARK   25  A    between atoms: _60  and  _63
REMARK   26  A    between atoms: _63  and  _64
REMARK   27  A    between atoms: _67  and  _69
REMARK   28  A    between atoms: _69  and  _70
REMARK   29  A    between atoms: _69  and  _72
REMARK   30  A    between atoms: _72  and  _73
REMARK   31  A    between atoms: _76  and  _78
REMARK   32  A    between atoms: _78  and  _79
REMARK   33  A    between atoms: _78  and  _81
REMARK   34  A    between atoms: _81  and  _82
REMARK   35  A    between atoms: _85  and  _87
REMARK   36  A    between atoms: _87  and  _88
REMARK   37  A    between atoms: _87  and  _90
REMARK   38  A    between atoms: _93  and  _95
REMARK   39  A    between atoms: _95  and  _96
REMARK   40  A    between atoms: _95  and  _98
REMARK   41  A    between atoms: _98  and  _99
REMARK   42  A    between atoms: _99  and  _100
REMARK   43  A    between atoms: _100  and  _101
REMARK   44  A    between atoms: _101  and  _102
REMARK   45  A    between atoms: _106  and  _108
REMARK   46  A    between atoms: _108  and  _109
REMARK   47  A    between atoms: _108  and  _111
REMARK   48  A    between atoms: _111  and  _112
REMARK   49  A    between atoms: _112  and  _113
REMARK   50  A    between atoms: _115  and  _117
REMARK   51  A    between atoms: _117  and  _118
REMARK   52  A    between atoms: _117  and  _120
REMARK   53  A    between atoms: _120  and  _121
REMARK   54  A    between atoms: _124  and  _126
REMARK   55  A    between atoms: _126  and  _127
REMARK   56  A    between atoms: _129  and  _131
REMARK   57  A    between atoms: _131  and  _132
REMARK   58  A    between atoms: _134  and  _136
REMARK   59  A    between atoms: _136  and  _137
REMARK   60  A    between atoms: _136  and  _139
REMARK   61  A    between atoms: _139  and  _140
REMARK   62  A    between atoms: _143  and  _145
REMARK   63  A    between atoms: _145  and  _146
REMARK   64  A    between atoms: _148  and  _150
REMARK   65  A    between atoms: _150  and  _151
REMARK   66  A    between atoms: _153  and  _155
REMARK   67  A    between atoms: _155  and  _156
REMARK   68  A    between atoms: _155  and  _158
REMARK   69  A    between atoms: _158  and  _159
REMARK   70  A    between atoms: _165  and  _167
REMARK   71  A    between atoms: _167  and  _168
REMARK   72  A    between atoms: _167  and  _170
REMARK   73  A    between atoms: _170  and  _171
REMARK   74  A    between atoms: _174  and  _176
REMARK   75  A    between atoms: _176  and  _177
REMARK   76  A    between atoms: _176  and  _179
REMARK   77  A    between atoms: _182  and  _184
REMARK   78  A    between atoms: _184  and  _185
REMARK   79  A    between atoms: _184  and  _187
REMARK   80  A    between atoms: _187  and  _188
REMARK   81  A    between atoms: _191  and  _193
REMARK   82  A    between atoms: _193  and  _194
REMARK   83  A    between atoms: _193  and  _196
REMARK   84  A    between atoms: _196  and  _197
REMARK   85  A    between atoms: _201  and  _202
REMARK   86  A    between atoms: _207  and  _209
REMARK   87  A    between atoms: _209  and  _210
REMARK   88  A    between atoms: _209  and  _212
REMARK   89  A    between atoms: _215  and  _217
REMARK   90  A    between atoms: _217  and  _218
REMARK   91  A    between atoms: _217  and  _220
REMARK   92  A    between atoms: _220  and  _221
REMARK   93  A    between atoms: _226  and  _228
REMARK   94  A    between atoms: _228  and  _229
REMARK   95  A    between atoms: _228  and  _231
REMARK   96  A    between atoms: _231  and  _232
REMARK   97  A    between atoms: _235  and  _237
REMARK   98  A    between atoms: _237  and  _238
REMARK   99  A    between atoms: _240  and  _242
REMARK  100  A    between atoms: _242  and  _243
REMARK  101  A    between atoms: _242  and  _245
REMARK  102  A    between atoms: _245  and  _246
REMARK  103  A    between atoms: _246  and  _247
REMARK  104  A    between atoms: _247  and  _248
REMARK  105  A    between atoms: _257  and  _259
REMARK  106  A    between atoms: _259  and  _260
REMARK  107  A    between atoms: _259  and  _262
REMARK  108  A    between atoms: _262  and  _263
REMARK  109  A    between atoms: _268  and  _270
REMARK  110  A    between atoms: _270  and  _271
REMARK  111  A    between atoms: _270  and  _273
REMARK  112  A    between atoms: _273  and  _274
REMARK  113  A    between atoms: _274  and  _275
REMARK  114  A    between atoms: _275  and  _276
REMARK  115  A    between atoms: _285  and  _287
REMARK  116  A    between atoms: _287  and  _288
REMARK  117  A    between atoms: _287  and  _290
REMARK  118  A    between atoms: _290  and  _291
REMARK  119  A    between atoms: _294  and  _296
REMARK  120  A    between atoms: _296  and  _297
REMARK  121  A    between atoms: _296  and  _299
REMARK  122  A    between atoms: _299  and  _300
REMARK  123  A    between atoms: _303  and  _305
REMARK  124  A    between atoms: _305  and  _306
REMARK  125  A    between atoms: _305  and  _308
REMARK  126  A    between atoms: _308  and  _309
REMARK  127  A    between atoms: _314  and  _316
REMARK  128  A    between atoms: _316  and  _317
REMARK  129  A    between atoms: _316  and  _319
REMARK  130  A    between atoms: _319  and  _320
REMARK  131  A    between atoms: _323  and  _325
REMARK  132  A    between atoms: _325  and  _326
REMARK  133  A    between atoms: _328  and  _330
REMARK  134  A    between atoms: _330  and  _331
REMARK  135  A    between atoms: _334  and  _336
REMARK  136  A    between atoms: _336  and  _337
REMARK  137  A    between atoms: _336  and  _339
REMARK  138  A    between atoms: _339  and  _340
REMARK  139  A    between atoms: _343  and  _345
REMARK  140  A    between atoms: _345  and  _346
REMARK  141  A    between atoms: _345  and  _348
REMARK  142  A    between atoms: _348  and  _349
REMARK  143  A    between atoms: _352  and  _354
REMARK  144  A    between atoms: _354  and  _355
REMARK  145  A    between atoms: _354  and  _357
REMARK  146  A    between atoms: _357  and  _358
REMARK  147  A    between atoms: _361  and  _363
REMARK  148  A    between atoms: _363  and  _364
REMARK  149  A    between atoms: _363  and  _366
REMARK  150  A    between atoms: _369  and  _371
REMARK  151  A    between atoms: _371  and  _372
REMARK  152  A    between atoms: _371  and  _374
REMARK  153  A    between atoms: _374  and  _375
REMARK  154  A    between atoms: _375  and  _376
REMARK  155  A    between atoms: _376  and  _377
REMARK  156  A    between atoms: _377  and  _378
REMARK  157  A    between atoms: _382  and  _384
REMARK  158  A    between atoms: _384  and  _385
REMARK  159  A    between atoms: _384  and  _387
REMARK  160  A    between atoms: _387  and  _388
REMARK  161  A    between atoms: _388  and  _389
REMARK  162  A    between atoms: _391  and  _393
REMARK  163  A    between atoms: _393  and  _394
REMARK  164  A    between atoms: _393  and  _396
REMARK  165  A    between atoms: _396  and  _397
REMARK  166  A    between atoms: _400  and  _402
REMARK  167  A    between atoms: _402  and  _403
REMARK  168  A    between atoms: _405  and  _407
REMARK  169  A    between atoms: _407  and  _408
REMARK  170  A    between atoms: _410  and  _412
REMARK  171  A    between atoms: _412  and  _413
REMARK  172  A    between atoms: _412  and  _415
REMARK  173  A    between atoms: _415  and  _416
REMARK  174  A    between atoms: _419  and  _421
REMARK  175  A    between atoms: _421  and  _422
REMARK  176  A    between atoms: _424  and  _426
REMARK  177  A    between atoms: _426  and  _427
REMARK  178  A    between atoms: _429  and  _431
REMARK  179  A    between atoms: _431  and  _432
REMARK  180  A    between atoms: _431  and  _434
REMARK  181  A    between atoms: _434  and  _435
REMARK  182  A    between atoms: _441  and  _443
REMARK  183  A    between atoms: _443  and  _444
REMARK  184  A    between atoms: _443  and  _446
REMARK  185  A    between atoms: _446  and  _447
REMARK  186  A    between atoms: _450  and  _452
REMARK  187  A    between atoms: _452  and  _453
REMARK  188  A    between atoms: _452  and  _455
REMARK  189  A    between atoms: _458  and  _460
REMARK  190  A    between atoms: _460  and  _461
REMARK  191  A    between atoms: _460  and  _463
REMARK  192  A    between atoms: _463  and  _464
REMARK  193  A    between atoms: _468  and  _469
REMARK  194  A    between atoms: _474  and  _476
REMARK  195  A    between atoms: _476  and  _477
REMARK  196  A    between atoms: _476  and  _479
REMARK  197  A    between atoms: _479  and  _480
REMARK  198  A    between atoms: _484  and  _485
REMARK  199  A    between atoms: _490  and  _492
REMARK  200  A    between atoms: _492  and  _493
REMARK  201  A    between atoms: _492  and  _495
REMARK  202  A    between atoms: _498  and  _500
REMARK  203  A    between atoms: _500  and  _501
REMARK  204  A    between atoms: _500  and  _503
REMARK  205  A    between atoms: _503  and  _504
REMARK  206  A    between atoms: _509  and  _511
REMARK  207  A    between atoms: _511  and  _512
REMARK  208  A    between atoms: _511  and  _514
REMARK  209  A    between atoms: _514  and  _515
REMARK  210  A    between atoms: _518  and  _520
REMARK  211  A    between atoms: _520  and  _521
REMARK  212  A    between atoms: _520  and  _523
REMARK  213  A    between atoms: _523  and  _524
REMARK  214  A    between atoms: _527  and  _529
REMARK  215  A    between atoms: _529  and  _530
REMARK  216  A    between atoms: _532  and  _534
REMARK  217  A    between atoms: _534  and  _535
REMARK  218  A    between atoms: _534  and  _537
REMARK  219  A    between atoms: _537  and  _538
REMARK  220  A    between atoms: _538  and  _539
REMARK  221  A    between atoms: _539  and  _540
REMARK  222  A    between atoms: _549  and  _551
REMARK  223  A    between atoms: _551  and  _552
REMARK  224  A    between atoms: _551  and  _554
REMARK  225  A    between atoms: _554  and  _555
REMARK                            x       y       z     vdW  Elec       q    Type
REMARK                         _______ _______ _______ _____ _____    ______ ____
ROOT
ATOM      1  O   HOH     1       4.867  21.283  11.706  0.00  0.00    +0.000 OA
ENDROOT
TORSDOF 0
REMARK  Name = ../refined-set-2016/3bva/3bva_pocket.pdb
REMARK  225 active torsions:
REMARK  status: ('A' for Active; 'I' for Inactive)
REMARK    1  A    between atoms: _1  and  _3
REMARK    2  A    between atoms: _3  and  _4
REMARK    3  A    between atoms: _3  and  _6
REMARK    4  A    between atoms: _6  and  _7
REMARK    5  A    between atoms: _7  and  _8
REMARK    6  A    between atoms: _8  and  _9
REMARK    7  A    between atoms: _18  and  _20
REMARK    8  A    between atoms: _20  and  _21
REMARK    9  A    between atoms: _20  and  _23
REMARK   10  A    between atoms: _23  and  _24
REMARK   11  A    between atoms: _27  and  _29
REMARK   12  A    between atoms: _29  and  _30
REMARK   13  A    between atoms: _29  and  _32
REMARK   14  A    between atoms: _32  and  _33
REMARK   15  A    between atoms: _38  and  _40
REMARK   16  A    between atoms: _40  and  _41
REMARK   17  A    between atoms: _40  and  _43
REMARK   18  A    between atoms: _43  and  _44
REMARK   19  A    between atoms: _47  and  _49
REMARK   20  A    between atoms: _49  and  _50
REMARK   21  A    between atoms: _52  and  _54
REMARK   22  A    between atoms: _54  and  _55
REMARK   23  A    between atoms: _58  and  _60
REMARK   24  A    between atoms: _60  and  _61
REMARK   25  A    between atoms: _60  and  _63
REMARK   26  A    between atoms: _63  and  _64
REMARK   27  A    between atoms: _67  and  _69
REMARK   28  A    between atoms: _69  and  _70
REMARK   29  A    between atoms: _69  and  _72
REMARK   30  A    between atoms: _72  and  _73
REMARK   31  A    between atoms: _76  and  _78
REMARK   32  A    between atoms: _78  and  _79
REMARK   33  A    between atoms: _78  and  _81
REMARK   34  A    between atoms: _81  and  _82
REMARK   35  A    between atoms: _85  and  _87
REMARK   36  A    between atoms: _87  and  _88
REMARK   37  A    between atoms: _87  and  _90
REMARK   38  A    between atoms: _93  and  _95
REMARK   39  A    between atoms: _95  and  _96
REMARK   40  A    between atoms: _95  and  _98
REMARK   41  A    between atoms: _98  and  _99
REMARK   42  A    between atoms: _99  and  _100
REMARK   43  A    between atoms: _100  and  _101
REMARK   44  A    between atoms: _101  and  _102
REMARK   45  A    between atoms: _106  and  _108
REMARK   46  A    between atoms: _108  and  _109
REMARK   47  A    between atoms: _108  and  _111
REMARK   48  A    between atoms: _111  and  _112
REMARK   49  A    between atoms: _112  and  _113
REMARK   50  A    between atoms: _115  and  _117
REMARK   51  A    between atoms: _117  and  _118
REMARK   52  A    between atoms: _117  and  _120
REMARK   53  A    between atoms: _120  and  _121
REMARK   54  A    between atoms: _124  and  _126
REMARK   55  A    between atoms: _126  and  _127
REMARK   56  A    between atoms: _129  and  _131
REMARK   57  A    between atoms: _131  and  _132
REMARK   58  A    between atoms: _134  and  _136
REMARK   59  A    between atoms: _136  and  _137
REMARK   60  A    between atoms: _136  and  _139
REMARK   61  A    between atoms: _139  and  _140
REMARK   62  A    between atoms: _143  and  _145
REMARK   63  A    between atoms: _145  and  _146
REMARK   64  A    between atoms: _148  and  _150
REMARK   65  A    between atoms: _150  and  _151
REMARK   66  A    between atoms: _153  and  _155
REMARK   67  A    between atoms: _155  and  _156
REMARK   68  A    between atoms: _155  and  _158
REMARK   69  A    between atoms: _158  and  _159
REMARK   70  A    between atoms: _165  and  _167
REMARK   71  A    between atoms: _167  and  _168
REMARK   72  A    between atoms: _167  and  _170
REMARK   73  A    between atoms: _170  and  _171
REMARK   74  A    between atoms: _174  and  _176
REMARK   75  A    between atoms: _176  and  _177
REMARK   76  A    between atoms: _176  and  _179
REMARK   77  A    between atoms: _182  and  _184
REMARK   78  A    between atoms: _184  and  _185
REMARK   79  A    between atoms: _184  and  _187
REMARK   80  A    between atoms: _187  and  _188
REMARK   81  A    between atoms: _191  and  _193
REMARK   82  A    between atoms: _193  and  _194
REMARK   83  A    between atoms: _193  and  _196
REMARK   84  A    between atoms: _196  and  _197
REMARK   85  A    between atoms: _201  and  _202
REMARK   86  A    between atoms: _207  and  _209
REMARK   87  A    between atoms: _209  and  _210
REMARK   88  A    between atoms: _209  and  _212
REMARK   89  A    between atoms: _215  and  _217
REMARK   90  A    between atoms: _217  and  _218
REMARK   91  A    between atoms: _217  and  _220
REMARK   92  A    between atoms: _220  and  _221
REMARK   93  A    between atoms: _226  and  _228
REMARK   94  A    between atoms: _228  and  _229
REMARK   95  A    between atoms: _228  and  _231
REMARK   96  A    between atoms: _231  and  _232
REMARK   97  A    between atoms: _235  and  _237
REMARK   98  A    between atoms: _237  and  _238
REMARK   99  A    between atoms: _240  and  _242
REMARK  100  A    between atoms: _242  and  _243
REMARK  101  A    between atoms: _242  and  _245
REMARK  102  A    between atoms: _245  and  _246
REMARK  103  A    between atoms: _246  and  _247
REMARK  104  A    between atoms: _247  and  _248
REMARK  105  A    between atoms: _257  and  _259
REMARK  106  A    between atoms: _259  and  _260
REMARK  107  A    between atoms: _259  and  _262
REMARK  108  A    between atoms: _262  and  _263
REMARK  109  A    between atoms: _268  and  _270
REMARK  110  A    between atoms: _270  and  _271
REMARK  111  A    between atoms: _270  and  _273
REMARK  112  A    between atoms: _273  and  _274
REMARK  113  A    between atoms: _274  and  _275
REMARK  114  A    between atoms: _275  and  _276
REMARK  115  A    between atoms: _285  and  _287
REMARK  116  A    between atoms: _287  and  _288
REMARK  117  A    between atoms: _287  and  _290
REMARK  118  A    between atoms: _290  and  _291
REMARK  119  A    between atoms: _294  and  _296
REMARK  120  A    between atoms: _296  and  _297
REMARK  121  A    between atoms: _296  and  _299
REMARK  122  A    between atoms: _299  and  _300
REMARK  123  A    between atoms: _303  and  _305
REMARK  124  A    between atoms: _305  and  _306
REMARK  125  A    between atoms: _305  and  _308
REMARK  126  A    between atoms: _308  and  _309
REMARK  127  A    between atoms: _314  and  _316
REMARK  128  A    between atoms: _316  and  _317
REMARK  129  A    between atoms: _316  and  _319
REMARK  130  A    between atoms: _319  and  _320
REMARK  131  A    between atoms: _323  and  _325
REMARK  132  A    between atoms: _325  and  _326
REMARK  133  A    between atoms: _328  and  _330
REMARK  134  A    between atoms: _330  and  _331
REMARK  135  A    between atoms: _334  and  _336
REMARK  136  A    between atoms: _336  and  _337
REMARK  137  A    between atoms: _336  and  _339
REMARK  138  A    between atoms: _339  and  _340
REMARK  139  A    between atoms: _343  and  _345
REMARK  140  A    between atoms: _345  and  _346
REMARK  141  A    between atoms: _345  and  _348
REMARK  142  A    between atoms: _348  and  _349
REMARK  143  A    between atoms: _352  and  _354
REMARK  144  A    between atoms: _354  and  _355
REMARK  145  A    between atoms: _354  and  _357
REMARK  146  A    between atoms: _357  and  _358
REMARK  147  A    between atoms: _361  and  _363
REMARK  148  A    between atoms: _363  and  _364
REMARK  149  A    between atoms: _363  and  _366
REMARK  150  A    between atoms: _369  and  _371
REMARK  151  A    between atoms: _371  and  _372
REMARK  152  A    between atoms: _371  and  _374
REMARK  153  A    between atoms: _374  and  _375
REMARK  154  A    between atoms: _375  and  _376
REMARK  155  A    between atoms: _376  and  _377
REMARK  156  A    between atoms: _377  and  _378
REMARK  157  A    between atoms: _382  and  _384
REMARK  158  A    between atoms: _384  and  _385
REMARK  159  A    between atoms: _384  and  _387
REMARK  160  A    between atoms: _387  and  _388
REMARK  161  A    between atoms: _388  and  _389
REMARK  162  A    between atoms: _391  and  _393
REMARK  163  A    between atoms: _393  and  _394
REMARK  164  A    between atoms: _393  and  _396
REMARK  165  A    between atoms: _396  and  _397
REMARK  166  A    between atoms: _400  and  _402
REMARK  167  A    between atoms: _402  and  _403
REMARK  168  A    between atoms: _405  and  _407
REMARK  169  A    between atoms: _407  and  _408
REMARK  170  A    between atoms: _410  and  _412
REMARK  171  A    between atoms: _412  and  _413
REMARK  172  A    between atoms: _412  and  _415
REMARK  173  A    between atoms: _415  and  _416
REMARK  174  A    between atoms: _419  and  _421
REMARK  175  A    between atoms: _421  and  _422
REMARK  176  A    between atoms: _424  and  _426
REMARK  177  A    between atoms: _426  and  _427
REMARK  178  A    between atoms: _429  and  _431
REMARK  179  A    between atoms: _431  and  _432
REMARK  180  A    between atoms: _431  and  _434
REMARK  181  A    between atoms: _434  and  _435
REMARK  182  A    between atoms: _441  and  _443
REMARK  183  A    between atoms: _443  and  _444
REMARK  184  A    between atoms: _443  and  _446
REMARK  185  A    between atoms: _446  and  _447
REMARK  186  A    between atoms: _450  and  _452
REMARK  187  A    between atoms: _452  and  _453
REMARK  188  A    between atoms: _452  and  _455
REMARK  189  A    between atoms: _458  and  _460
REMARK  190  A    between atoms: _460  and  _461
REMARK  191  A    between atoms: _460  and  _463
REMARK  192  A    between atoms: _463  and  _464
REMARK  193  A    between atoms: _468  and  _469
REMARK  194  A    between atoms: _474  and  _476
REMARK  195  A    between atoms: _476  and  _477
REMARK  196  A    between atoms: _476  and  _479
REMARK  197  A    between atoms: _479  and  _480
REMARK  198  A    between atoms: _484  and  _485
REMARK  199  A    between atoms: _490  and  _492
REMARK  200  A    between atoms: _492  and  _493
REMARK  201  A    between atoms: _492  and  _495
REMARK  202  A    between atoms: _498  and  _500
REMARK  203  A    between atoms: _500  and  _501
REMARK  204  A    between atoms: _500  and  _503
REMARK  205  A    between atoms: _503  and  _504
REMARK  206  A    between atoms: _509  and  _511
REMARK  207  A    between atoms: _511  and  _512
REMARK  208  A    between atoms: _511  and  _514
REMARK  209  A    between atoms: _514  and  _515
REMARK  210  A    between atoms: _518  and  _520
REMARK  211  A    between atoms: _520  and  _521
REMARK  212  A    between atoms: _520  and  _523
REMARK  213  A    between atoms: _523  and  _524
REMARK  214  A    between atoms: _527  and  _529
REMARK  215  A    between atoms: _529  and  _530
REMARK  216  A    between atoms: _532  and  _534
REMARK  217  A    between atoms: _534  and  _535
REMARK  218  A    between atoms: _534  and  _537
REMARK  219  A    between atoms: _537  and  _538
REMARK  220  A    between atoms: _538  and  _539
REMARK  221  A    between atoms: _539  and  _540
REMARK  222  A    between atoms: _549  and  _551
REMARK  223  A    between atoms: _551  and  _552
REMARK  224  A    between atoms: _551  and  _554
REMARK  225  A    between atoms: _554  and  _555
REMARK                            x       y       z     vdW  Elec       q    Type
REMARK                         _______ _______ _______ _____ _____    ______ ____
ROOT
ATOM      1  O   HOH     1      30.721  31.038  14.644  0.00  0.00    +0.000 OA
ENDROOT
TORSDOF 0
REMARK  Name = ../refined-set-2016/3bva/3bva_pocket.pdb
REMARK  225 active torsions:
REMARK  status: ('A' for Active; 'I' for Inactive)
REMARK    1  A    between atoms: _1  and  _3
REMARK    2  A    between atoms: _3  and  _4
REMARK    3  A    between atoms: _3  and  _6
REMARK    4  A    between atoms: _6  and  _7
REMARK    5  A    between atoms: _7  and  _8
REMARK    6  A    between atoms: _8  and  _9
REMARK    7  A    between atoms: _18  and  _20
REMARK    8  A    between atoms: _20  and  _21
REMARK    9  A    between atoms: _20  and  _23
REMARK   10  A    between atoms: _23  and  _24
REMARK   11  A    between atoms: _27  and  _29
REMARK   12  A    between atoms: _29  and  _30
REMARK   13  A    between atoms: _29  and  _32
REMARK   14  A    between atoms: _32  and  _33
REMARK   15  A    between atoms: _38  and  _40
REMARK   16  A    between atoms: _40  and  _41
REMARK   17  A    between atoms: _40  and  _43
REMARK   18  A    between atoms: _43  and  _44
REMARK   19  A    between atoms: _47  and  _49
REMARK   20  A    between atoms: _49  and  _50
REMARK   21  A    between atoms: _52  and  _54
REMARK   22  A    between atoms: _54  and  _55
REMARK   23  A    between atoms: _58  and  _60
REMARK   24  A    between atoms: _60  and  _61
REMARK   25  A    between atoms: _60  and  _63
REMARK   26  A    between atoms: _63  and  _64
REMARK   27  A    between atoms: _67  and  _69
REMARK   28  A    between atoms: _69  and  _70
REMARK   29  A    between atoms: _69  and  _72
REMARK   30  A    between atoms: _72  and  _73
REMARK   31  A    between atoms: _76  and  _78
REMARK   32  A    between atoms: _78  and  _79
REMARK   33  A    between atoms: _78  and  _81
REMARK   34  A    between atoms: _81  and  _82
REMARK   35  A    between atoms: _85  and  _87
REMARK   36  A    between atoms: _87  and  _88
REMARK   37  A    between atoms: _87  and  _90
REMARK   38  A    between atoms: _93  and  _95
REMARK   39  A    between atoms: _95  and  _96
REMARK   40  A    between atoms: _95  and  _98
REMARK   41  A    between atoms: _98  and  _99
REMARK   42  A    between atoms: _99  and  _100
REMARK   43  A    between atoms: _100  and  _101
REMARK   44  A    between atoms: _101  and  _102
REMARK   45  A    between atoms: _106  and  _108
REMARK   46  A    between atoms: _108  and  _109
REMARK   47  A    between atoms: _108  and  _111
REMARK   48  A    between atoms: _111  and  _112
REMARK   49  A    between atoms: _112  and  _113
REMARK   50  A    between atoms: _115  and  _117
REMARK   51  A    between atoms: _117  and  _118
REMARK   52  A    between atoms: _117  and  _120
REMARK   53  A    between atoms: _120  and  _121
REMARK   54  A    between atoms: _124  and  _126
REMARK   55  A    between atoms: _126  and  _127
REMARK   56  A    between atoms: _129  and  _131
REMARK   57  A    between atoms: _131  and  _132
REMARK   58  A    between atoms: _134  and  _136
REMARK   59  A    between atoms: _136  and  _137
REMARK   60  A    between atoms: _136  and  _139
REMARK   61  A    between atoms: _139  and  _140
REMARK   62  A    between atoms: _143  and  _145
REMARK   63  A    between atoms: _145  and  _146
REMARK   64  A    between atoms: _148  and  _150
REMARK   65  A    between atoms: _150  and  _151
REMARK   66  A    between atoms: _153  and  _155
REMARK   67  A    between atoms: _155  and  _156
REMARK   68  A    between atoms: _155  and  _158
REMARK   69  A    between atoms: _158  and  _159
REMARK   70  A    between atoms: _165  and  _167
REMARK   71  A    between atoms: _167  and  _168
REMARK   72  A    between atoms: _167  and  _170
REMARK   73  A    between atoms: _170  and  _171
REMARK   74  A    between atoms: _174  and  _176
REMARK   75  A    between atoms: _176  and  _177
REMARK   76  A    between atoms: _176  and  _179
REMARK   77  A    between atoms: _182  and  _184
REMARK   78  A    between atoms: _184  and  _185
REMARK   79  A    between atoms: _184  and  _187
REMARK   80  A    between atoms: _187  and  _188
REMARK   81  A    between atoms: _191  and  _193
REMARK   82  A    between atoms: _193  and  _194
REMARK   83  A    between atoms: _193  and  _196
REMARK   84  A    between atoms: _196  and  _197
REMARK   85  A    between atoms: _201  and  _202
REMARK   86  A    between atoms: _207  and  _209
REMARK   87  A    between atoms: _209  and  _210
REMARK   88  A    between atoms: _209  and  _212
REMARK   89  A    between atoms: _215  and  _217
REMARK   90  A    between atoms: _217  and  _218
REMARK   91  A    between atoms: _217  and  _220
REMARK   92  A    between atoms: _220  and  _221
REMARK   93  A    between atoms: _226  and  _228
REMARK   94  A    between atoms: _228  and  _229
REMARK   95  A    between atoms: _228  and  _231
REMARK   96  A    between atoms: _231  and  _232
REMARK   97  A    between atoms: _235  and  _237
REMARK   98  A    between atoms: _237  and  _238
REMARK   99  A    between atoms: _240  and  _242
REMARK  100  A    between atoms: _242  and  _243
REMARK  101  A    between atoms: _242  and  _245
REMARK  102  A    between atoms: _245  and  _246
REMARK  103  A    between atoms: _246  and  _247
REMARK  104  A    between atoms: _247  and  _248
REMARK  105  A    between atoms: _257  and  _259
REMARK  106  A    between atoms: _259  and  _260
REMARK  107  A    between atoms: _259  and  _262
REMARK  108  A    between atoms: _262  and  _263
REMARK  109  A    between atoms: _268  and  _270
REMARK  110  A    between atoms: _270  and  _271
REMARK  111  A    between atoms: _270  and  _273
REMARK  112  A    between atoms: _273  and  _274
REMARK  113  A    between atoms: _274  and  _275
REMARK  114  A    between atoms: _275  and  _276
REMARK  115  A    between atoms: _285  and  _287
REMARK  116  A    between atoms: _287  and  _288
REMARK  117  A    between atoms: _287  and  _290
REMARK  118  A    between atoms: _290  and  _291
REMARK  119  A    between atoms: _294  and  _296
REMARK  120  A    between atoms: _296  and  _297
REMARK  121  A    between atoms: _296  and  _299
REMARK  122  A    between atoms: _299  and  _300
REMARK  123  A    between atoms: _303  and  _305
REMARK  124  A    between atoms: _305  and  _306
REMARK  125  A    between atoms: _305  and  _308
REMARK  126  A    between atoms: _308  and  _309
REMARK  127  A    between atoms: _314  and  _316
REMARK  128  A    between atoms: _316  and  _317
REMARK  129  A    between atoms: _316  and  _319
REMARK  130  A    between atoms: _319  and  _320
REMARK  131  A    between atoms: _323  and  _325
REMARK  132  A    between atoms: _325  and  _326
REMARK  133  A    between atoms: _328  and  _330
REMARK  134  A    between atoms: _330  and  _331
REMARK  135  A    between atoms: _334  and  _336
REMARK  136  A    between atoms: _336  and  _337
REMARK  137  A    between atoms: _336  and  _339
REMARK  138  A    between atoms: _339  and  _340
REMARK  139  A    between atoms: _343  and  _345
REMARK  140  A    between atoms: _345  and  _346
REMARK  141  A    between atoms: _345  and  _348
REMARK  142  A    between atoms: _348  and  _349
REMARK  143  A    between atoms: _352  and  _354
REMARK  144  A    between atoms: _354  and  _355
REMARK  145  A    between atoms: _354  and  _357
REMARK  146  A    between atoms: _357  and  _358
REMARK  147  A    between atoms: _361  and  _363
REMARK  148  A    between atoms: _363  and  _364
REMARK  149  A    between atoms: _363  and  _366
REMARK  150  A    between atoms: _369  and  _371
REMARK  151  A    between atoms: _371  and  _372
REMARK  152  A    between atoms: _371  and  _374
REMARK  153  A    between atoms: _374  and  _375
REMARK  154  A    between atoms: _375  and  _376
REMARK  155  A    between atoms: _376  and  _377
REMARK  156  A    between atoms: _377  and  _378
REMARK  157  A    between atoms: _382  and  _384
REMARK  158  A    between atoms: _384  and  _385
REMARK  159  A    between atoms: _384  and  _387
REMARK  160  A    between atoms: _387  and  _388
REMARK  161  A    between atoms: _388  and  _389
REMARK  162  A    between atoms: _391  and  _393
REMARK  163  A    between atoms: _393  and  _394
REMARK  164  A    between atoms: _393  and  _396
REMARK  165  A    between atoms: _396  and  _397
REMARK  166  A    between atoms: _400  and  _402
REMARK  167  A    between atoms: _402  and  _403
REMARK  168  A    between atoms: _405  and  _407
REMARK  169  A    between atoms: _407  and  _408
REMARK  170  A    between atoms: _410  and  _412
REMARK  171  A    between atoms: _412  and  _413
REMARK  172  A    between atoms: _412  and  _415
REMARK  173  A    between atoms: _415  and  _416
REMARK  174  A    between atoms: _419  and  _421
REMARK  175  A    between atoms: _421  and  _422
REMARK  176  A    between atoms: _424  and  _426
REMARK  177  A    between atoms: _426  and  _427
REMARK  178  A    between atoms: _429  and  _431
REMARK  179  A    between atoms: _431  and  _432
REMARK  180  A    between atoms: _431  and  _434
REMARK  181  A    between atoms: _434  and  _435
REMARK  182  A    between atoms: _441  and  _443
REMARK  183  A    between atoms: _443  and  _444
REMARK  184  A    between atoms: _443  and  _446
REMARK  185  A    between atoms: _446  and  _447
REMARK  186  A    between atoms: _450  and  _452
REMARK  187  A    between atoms: _452  and  _453
REMARK  188  A    between atoms: _452  and  _455
REMARK  189  A    between atoms: _458  and  _460
REMARK  190  A    between atoms: _460  and  _461
REMARK  191  A    between atoms: _460  and  _463
REMARK  192  A    between atoms: _463  and  _464
REMARK  193  A    between atoms: _468  and  _469
REMARK  194  A    between atoms: _474  and  _476
REMARK  195  A    between atoms: _476  and  _477
REMARK  196  A    between atoms: _476  and  _479
REMARK  197  A    between atoms: _479  and  _480
REMARK  198  A    between atoms: _484  and  _485
REMARK  199  A    between atoms: _490  and  _492
REMARK  200  A    between atoms: _492  and  _493
REMARK  201  A    between atoms: _492  and  _495
REMARK  202  A    between atoms: _498  and  _500
REMARK  203  A    between atoms: _500  and  _501
REMARK  204  A    between atoms: _500  and  _503
REMARK  205  A    between atoms: _503  and  _504
REMARK  206  A    between atoms: _509  and  _511
REMARK  207  A    between atoms: _511  and  _512
REMARK  208  A    between atoms: _511  and  _514
REMARK  209  A    between atoms: _514  and  _515
REMARK  210  A    between atoms: _518  and  _520
REMARK  211  A    between atoms: _520  and  _521
REMARK  212  A    between atoms: _520  and  _523
REMARK  213  A    between atoms: _523  and  _524
REMARK  214  A    between atoms: _527  and  _529
REMARK  215  A    between atoms: _529  and  _530
REMARK  216  A    between atoms: _532  and  _534
REMARK  217  A    between atoms: _534  and  _535
REMARK  218  A    between atoms: _534  and  _537
REMARK  219  A    between atoms: _537  and  _538
REMARK  220  A    between atoms: _538  and  _539
REMARK  221  A    between atoms: _539  and  _540
REMARK  222  A    between atoms: _549  and  _551
REMARK  223  A    between atoms: _551  and  _552
REMARK  224  A    between atoms: _551  and  _554
REMARK  225  A    between atoms: _554  and  _555
REMARK                            x       y       z     vdW  Elec       q    Type
REMARK                         _______ _______ _______ _____ _____    ______ ____
ROOT
ATOM      1  O   HOH     1       7.206  23.016   8.568  0.00  0.00    +0.000 OA
ENDROOT
TORSDOF 0
REMARK  Name = ../refined-set-2016/3bva/3bva_pocket.pdb
REMARK  225 active torsions:
REMARK  status: ('A' for Active; 'I' for Inactive)
REMARK    1  A    between atoms: _1  and  _3
REMARK    2  A    between atoms: _3  and  _4
REMARK    3  A    between atoms: _3  and  _6
REMARK    4  A    between atoms: _6  and  _7
REMARK    5  A    between atoms: _7  and  _8
REMARK    6  A    between atoms: _8  and  _9
REMARK    7  A    between atoms: _18  and  _20
REMARK    8  A    between atoms: _20  and  _21
REMARK    9  A    between atoms: _20  and  _23
REMARK   10  A    between atoms: _23  and  _24
REMARK   11  A    between atoms: _27  and  _29
REMARK   12  A    between atoms: _29  and  _30
REMARK   13  A    between atoms: _29  and  _32
REMARK   14  A    between atoms: _32  and  _33
REMARK   15  A    between atoms: _38  and  _40
REMARK   16  A    between atoms: _40  and  _41
REMARK   17  A    between atoms: _40  and  _43
REMARK   18  A    between atoms: _43  and  _44
REMARK   19  A    between atoms: _47  and  _49
REMARK   20  A    between atoms: _49  and  _50
REMARK   21  A    between atoms: _52  and  _54
REMARK   22  A    between atoms: _54  and  _55
REMARK   23  A    between atoms: _58  and  _60
REMARK   24  A    between atoms: _60  and  _61
REMARK   25  A    between atoms: _60  and  _63
REMARK   26  A    between atoms: _63  and  _64
REMARK   27  A    between atoms: _67  and  _69
REMARK   28  A    between atoms: _69  and  _70
REMARK   29  A    between atoms: _69  and  _72
REMARK   30  A    between atoms: _72  and  _73
REMARK   31  A    between atoms: _76  and  _78
REMARK   32  A    between atoms: _78  and  _79
REMARK   33  A    between atoms: _78  and  _81
REMARK   34  A    between atoms: _81  and  _82
REMARK   35  A    between atoms: _85  and  _87
REMARK   36  A    between atoms: _87  and  _88
REMARK   37  A    between atoms: _87  and  _90
REMARK   38  A    between atoms: _93  and  _95
REMARK   39  A    between atoms: _95  and  _96
REMARK   40  A    between atoms: _95  and  _98
REMARK   41  A    between atoms: _98  and  _99
REMARK   42  A    between atoms: _99  and  _100
REMARK   43  A    between atoms: _100  and  _101
REMARK   44  A    between atoms: _101  and  _102
REMARK   45  A    between atoms: _106  and  _108
REMARK   46  A    between atoms: _108  and  _109
REMARK   47  A    between atoms: _108  and  _111
REMARK   48  A    between atoms: _111  and  _112
REMARK   49  A    between atoms: _112  and  _113
REMARK   50  A    between atoms: _115  and  _117
REMARK   51  A    between atoms: _117  and  _118
REMARK   52  A    between atoms: _117  and  _120
REMARK   53  A    between atoms: _120  and  _121
REMARK   54  A    between atoms: _124  and  _126
REMARK   55  A    between atoms: _126  and  _127
REMARK   56  A    between atoms: _129  and  _131
REMARK   57  A    between atoms: _131  and  _132
REMARK   58  A    between atoms: _134  and  _136
REMARK   59  A    between atoms: _136  and  _137
REMARK   60  A    between atoms: _136  and  _139
REMARK   61  A    between atoms: _139  and  _140
REMARK   62  A    between atoms: _143  and  _145
REMARK   63  A    between atoms: _145  and  _146
REMARK   64  A    between atoms: _148  and  _150
REMARK   65  A    between atoms: _150  and  _151
REMARK   66  A    between atoms: _153  and  _155
REMARK   67  A    between atoms: _155  and  _156
REMARK   68  A    between atoms: _155  and  _158
REMARK   69  A    between atoms: _158  and  _159
REMARK   70  A    between atoms: _165  and  _167
REMARK   71  A    between atoms: _167  and  _168
REMARK   72  A    between atoms: _167  and  _170
REMARK   73  A    between atoms: _170  and  _171
REMARK   74  A    between atoms: _174  and  _176
REMARK   75  A    between atoms: _176  and  _177
REMARK   76  A    between atoms: _176  and  _179
REMARK   77  A    between atoms: _182  and  _184
REMARK   78  A    between atoms: _184  and  _185
REMARK   79  A    between atoms: _184  and  _187
REMARK   80  A    between atoms: _187  and  _188
REMARK   81  A    between atoms: _191  and  _193
REMARK   82  A    between atoms: _193  and  _194
REMARK   83  A    between atoms: _193  and  _196
REMARK   84  A    between atoms: _196  and  _197
REMARK   85  A    between atoms: _201  and  _202
REMARK   86  A    between atoms: _207  and  _209
REMARK   87  A    between atoms: _209  and  _210
REMARK   88  A    between atoms: _209  and  _212
REMARK   89  A    between atoms: _215  and  _217
REMARK   90  A    between atoms: _217  and  _218
REMARK   91  A    between atoms: _217  and  _220
REMARK   92  A    between atoms: _220  and  _221
REMARK   93  A    between atoms: _226  and  _228
REMARK   94  A    between atoms: _228  and  _229
REMARK   95  A    between atoms: _228  and  _231
REMARK   96  A    between atoms: _231  and  _232
REMARK   97  A    between atoms: _235  and  _237
REMARK   98  A    between atoms: _237  and  _238
REMARK   99  A    between atoms: _240  and  _242
REMARK  100  A    between atoms: _242  and  _243
REMARK  101  A    between atoms: _242  and  _245
REMARK  102  A    between atoms: _245  and  _246
REMARK  103  A    between atoms: _246  and  _247
REMARK  104  A    between atoms: _247  and  _248
REMARK  105  A    between atoms: _257  and  _259
REMARK  106  A    between atoms: _259  and  _260
REMARK  107  A    between atoms: _259  and  _262
REMARK  108  A    between atoms: _262  and  _263
REMARK  109  A    between atoms: _268  and  _270
REMARK  110  A    between atoms: _270  and  _271
REMARK  111  A    between atoms: _270  and  _273
REMARK  112  A    between atoms: _273  and  _274
REMARK  113  A    between atoms: _274  and  _275
REMARK  114  A    between atoms: _275  and  _276
REMARK  115  A    between atoms: _285  and  _287
REMARK  116  A    between atoms: _287  and  _288
REMARK  117  A    between atoms: _287  and  _290
REMARK  118  A    between atoms: _290  and  _291
REMARK  119  A    between atoms: _294  and  _296
REMARK  120  A    between atoms: _296  and  _297
REMARK  121  A    between atoms: _296  and  _299
REMARK  122  A    between atoms: _299  and  _300
REMARK  123  A    between atoms: _303  and  _305
REMARK  124  A    between atoms: _305  and  _306
REMARK  125  A    between atoms: _305  and  _308
REMARK  126  A    between atoms: _308  and  _309
REMARK  127  A    between atoms: _314  and  _316
REMARK  128  A    between atoms: _316  and  _317
REMARK  129  A    between atoms: _316  and  _319
REMARK  130  A    between atoms: _319  and  _320
REMARK  131  A    between atoms: _323  and  _325
REMARK  132  A    between atoms: _325  and  _326
REMARK  133  A    between atoms: _328  and  _330
REMARK  134  A    between atoms: _330  and  _331
REMARK  135  A    between atoms: _334  and  _336
REMARK  136  A    between atoms: _336  and  _337
REMARK  137  A    between atoms: _336  and  _339
REMARK  138  A    between atoms: _339  and  _340
REMARK  139  A    between atoms: _343  and  _345
REMARK  140  A    between atoms: _345  and  _346
REMARK  141  A    between atoms: _345  and  _348
REMARK  142  A    between atoms: _348  and  _349
REMARK  143  A    between atoms: _352  and  _354
REMARK  144  A    between atoms: _354  and  _355
REMARK  145  A    between atoms: _354  and  _357
REMARK  146  A    between atoms: _357  and  _358
REMARK  147  A    between atoms: _361  and  _363
REMARK  148  A    between atoms: _363  and  _364
REMARK  149  A    between atoms: _363  and  _366
REMARK  150  A    between atoms: _369  and  _371
REMARK  151  A    between atoms: _371  and  _372
REMARK  152  A    between atoms: _371  and  _374
REMARK  153  A    between atoms: _374  and  _375
REMARK  154  A    between atoms: _375  and  _376
REMARK  155  A    between atoms: _376  and  _377
REMARK  156  A    between atoms: _377  and  _378
REMARK  157  A    between atoms: _382  and  _384
REMARK  158  A    between atoms: _384  and  _385
REMARK  159  A    between atoms: _384  and  _387
REMARK  160  A    between atoms: _387  and  _388
REMARK  161  A    between atoms: _388  and  _389
REMARK  162  A    between atoms: _391  and  _393
REMARK  163  A    between atoms: _393  and  _394
REMARK  164  A    between atoms: _393  and  _396
REMARK  165  A    between atoms: _396  and  _397
REMARK  166  A    between atoms: _400  and  _402
REMARK  167  A    between atoms: _402  and  _403
REMARK  168  A    between atoms: _405  and  _407
REMARK  169  A    between atoms: _407  and  _408
REMARK  170  A    between atoms: _410  and  _412
REMARK  171  A    between atoms: _412  and  _413
REMARK  172  A    between atoms: _412  and  _415
REMARK  173  A    between atoms: _415  and  _416
REMARK  174  A    between atoms: _419  and  _421
REMARK  175  A    between atoms: _421  and  _422
REMARK  176  A    between atoms: _424  and  _426
REMARK  177  A    between atoms: _426  and  _427
REMARK  178  A    between atoms: _429  and  _431
REMARK  179  A    between atoms: _431  and  _432
REMARK  180  A    between atoms: _431  and  _434
REMARK  181  A    between atoms: _434  and  _435
REMARK  182  A    between atoms: _441  and  _443
REMARK  183  A    between atoms: _443  and  _444
REMARK  184  A    between atoms: _443  and  _446
REMARK  185  A    between atoms: _446  and  _447
REMARK  186  A    between atoms: _450  and  _452
REMARK  187  A    between atoms: _452  and  _453
REMARK  188  A    between atoms: _452  and  _455
REMARK  189  A    between atoms: _458  and  _460
REMARK  190  A    between atoms: _460  and  _461
REMARK  191  A    between atoms: _460  and  _463
REMARK  192  A    between atoms: _463  and  _464
REMARK  193  A    between atoms: _468  and  _469
REMARK  194  A    between atoms: _474  and  _476
REMARK  195  A    between atoms: _476  and  _477
REMARK  196  A    between atoms: _476  and  _479
REMARK  197  A    between atoms: _479  and  _480
REMARK  198  A    between atoms: _484  and  _485
REMARK  199  A    between atoms: _490  and  _492
REMARK  200  A    between atoms: _492  and  _493
REMARK  201  A    between atoms: _492  and  _495
REMARK  202  A    between atoms: _498  and  _500
REMARK  203  A    between atoms: _500  and  _501
REMARK  204  A    between atoms: _500  and  _503
REMARK  205  A    between atoms: _503  and  _504
REMARK  206  A    between atoms: _509  and  _511
REMARK  207  A    between atoms: _511  and  _512
REMARK  208  A    between atoms: _511  and  _514
REMARK  209  A    between atoms: _514  and  _515
REMARK  210  A    between atoms: _518  and  _520
REMARK  211  A    between atoms: _520  and  _521
REMARK  212  A    between atoms: _520  and  _523
REMARK  213  A    between atoms: _523  and  _524
REMARK  214  A    between atoms: _527  and  _529
REMARK  215  A    between atoms: _529  and  _530
REMARK  216  A    between atoms: _532  and  _534
REMARK  217  A    between atoms: _534  and  _535
REMARK  218  A    between atoms: _534  and  _537
REMARK  219  A    between atoms: _537  and  _538
REMARK  220  A    between atoms: _538  and  _539
REMARK  221  A    between atoms: _539  and  _540
REMARK  222  A    between atoms: _549  and  _551
REMARK  223  A    between atoms: _551  and  _552
REMARK  224  A    between atoms: _551  and  _554
REMARK  225  A    between atoms: _554  and  _555
REMARK                            x       y       z     vdW  Elec       q    Type
REMARK                         _______ _______ _______ _____ _____    ______ ____
ROOT
ATOM      1  O   HOH     1      29.734  24.363  18.829  0.00  0.00    +0.000 OA
ENDROOT
TORSDOF 0
REMARK  Name = ../refined-set-2016/3bva/3bva_pocket.pdb
REMARK  225 active torsions:
REMARK  status: ('A' for Active; 'I' for Inactive)
REMARK    1  A    between atoms: _1  and  _3
REMARK    2  A    between atoms: _3  and  _4
REMARK    3  A    between atoms: _3  and  _6
REMARK    4  A    between atoms: _6  and  _7
REMARK    5  A    between atoms: _7  and  _8
REMARK    6  A    between atoms: _8  and  _9
REMARK    7  A    between atoms: _18  and  _20
REMARK    8  A    between atoms: _20  and  _21
REMARK    9  A    between atoms: _20  and  _23
REMARK   10  A    between atoms: _23  and  _24
REMARK   11  A    between atoms: _27  and  _29
REMARK   12  A    between atoms: _29  and  _30
REMARK   13  A    between atoms: _29  and  _32
REMARK   14  A    between atoms: _32  and  _33
REMARK   15  A    between atoms: _38  and  _40
REMARK   16  A    between atoms: _40  and  _41
REMARK   17  A    between atoms: _40  and  _43
REMARK   18  A    between atoms: _43  and  _44
REMARK   19  A    between atoms: _47  and  _49
REMARK   20  A    between atoms: _49  and  _50
REMARK   21  A    between atoms: _52  and  _54
REMARK   22  A    between atoms: _54  and  _55
REMARK   23  A    between atoms: _58  and  _60
REMARK   24  A    between atoms: _60  and  _61
REMARK   25  A    between atoms: _60  and  _63
REMARK   26  A    between atoms: _63  and  _64
REMARK   27  A    between atoms: _67  and  _69
REMARK   28  A    between atoms: _69  and  _70
REMARK   29  A    between atoms: _69  and  _72
REMARK   30  A    between atoms: _72  and  _73
REMARK   31  A    between atoms: _76  and  _78
REMARK   32  A    between atoms: _78  and  _79
REMARK   33  A    between atoms: _78  and  _81
REMARK   34  A    between atoms: _81  and  _82
REMARK   35  A    between atoms: _85  and  _87
REMARK   36  A    between atoms: _87  and  _88
REMARK   37  A    between atoms: _87  and  _90
REMARK   38  A    between atoms: _93  and  _95
REMARK   39  A    between atoms: _95  and  _96
REMARK   40  A    between atoms: _95  and  _98
REMARK   41  A    between atoms: _98  and  _99
REMARK   42  A    between atoms: _99  and  _100
REMARK   43  A    between atoms: _100  and  _101
REMARK   44  A    between atoms: _101  and  _102
REMARK   45  A    between atoms: _106  and  _108
REMARK   46  A    between atoms: _108  and  _109
REMARK   47  A    between atoms: _108  and  _111
REMARK   48  A    between atoms: _111  and  _112
REMARK   49  A    between atoms: _112  and  _113
REMARK   50  A    between atoms: _115  and  _117
REMARK   51  A    between atoms: _117  and  _118
REMARK   52  A    between atoms: _117  and  _120
REMARK   53  A    between atoms: _120  and  _121
REMARK   54  A    between atoms: _124  and  _126
REMARK   55  A    between atoms: _126  and  _127
REMARK   56  A    between atoms: _129  and  _131
REMARK   57  A    between atoms: _131  and  _132
REMARK   58  A    between atoms: _134  and  _136
REMARK   59  A    between atoms: _136  and  _137
REMARK   60  A    between atoms: _136  and  _139
REMARK   61  A    between atoms: _139  and  _140
REMARK   62  A    between atoms: _143  and  _145
REMARK   63  A    between atoms: _145  and  _146
REMARK   64  A    between atoms: _148  and  _150
REMARK   65  A    between atoms: _150  and  _151
REMARK   66  A    between atoms: _153  and  _155
REMARK   67  A    between atoms: _155  and  _156
REMARK   68  A    between atoms: _155  and  _158
REMARK   69  A    between atoms: _158  and  _159
REMARK   70  A    between atoms: _165  and  _167
REMARK   71  A    between atoms: _167  and  _168
REMARK   72  A    between atoms: _167  and  _170
REMARK   73  A    between atoms: _170  and  _171
REMARK   74  A    between atoms: _174  and  _176
REMARK   75  A    between atoms: _176  and  _177
REMARK   76  A    between atoms: _176  and  _179
REMARK   77  A    between atoms: _182  and  _184
REMARK   78  A    between atoms: _184  and  _185
REMARK   79  A    between atoms: _184  and  _187
REMARK   80  A    between atoms: _187  and  _188
REMARK   81  A    between atoms: _191  and  _193
REMARK   82  A    between atoms: _193  and  _194
REMARK   83  A    between atoms: _193  and  _196
REMARK   84  A    between atoms: _196  and  _197
REMARK   85  A    between atoms: _201  and  _202
REMARK   86  A    between atoms: _207  and  _209
REMARK   87  A    between atoms: _209  and  _210
REMARK   88  A    between atoms: _209  and  _212
REMARK   89  A    between atoms: _215  and  _217
REMARK   90  A    between atoms: _217  and  _218
REMARK   91  A    between atoms: _217  and  _220
REMARK   92  A    between atoms: _220  and  _221
REMARK   93  A    between atoms: _226  and  _228
REMARK   94  A    between atoms: _228  and  _229
REMARK   95  A    between atoms: _228  and  _231
REMARK   96  A    between atoms: _231  and  _232
REMARK   97  A    between atoms: _235  and  _237
REMARK   98  A    between atoms: _237  and  _238
REMARK   99  A    between atoms: _240  and  _242
REMARK  100  A    between atoms: _242  and  _243
REMARK  101  A    between atoms: _242  and  _245
REMARK  102  A    between atoms: _245  and  _246
REMARK  103  A    between atoms: _246  and  _247
REMARK  104  A    between atoms: _247  and  _248
REMARK  105  A    between atoms: _257  and  _259
REMARK  106  A    between atoms: _259  and  _260
REMARK  107  A    between atoms: _259  and  _262
REMARK  108  A    between atoms: _262  and  _263
REMARK  109  A    between atoms: _268  and  _270
REMARK  110  A    between atoms: _270  and  _271
REMARK  111  A    between atoms: _270  and  _273
REMARK  112  A    between atoms: _273  and  _274
REMARK  113  A    between atoms: _274  and  _275
REMARK  114  A    between atoms: _275  and  _276
REMARK  115  A    between atoms: _285  and  _287
REMARK  116  A    between atoms: _287  and  _288
REMARK  117  A    between atoms: _287  and  _290
REMARK  118  A    between atoms: _290  and  _291
REMARK  119  A    between atoms: _294  and  _296
REMARK  120  A    between atoms: _296  and  _297
REMARK  121  A    between atoms: _296  and  _299
REMARK  122  A    between atoms: _299  and  _300
REMARK  123  A    between atoms: _303  and  _305
REMARK  124  A    between atoms: _305  and  _306
REMARK  125  A    between atoms: _305  and  _308
REMARK  126  A    between atoms: _308  and  _309
REMARK  127  A    between atoms: _314  and  _316
REMARK  128  A    between atoms: _316  and  _317
REMARK  129  A    between atoms: _316  and  _319
REMARK  130  A    between atoms: _319  and  _320
REMARK  131  A    between atoms: _323  and  _325
REMARK  132  A    between atoms: _325  and  _326
REMARK  133  A    between atoms: _328  and  _330
REMARK  134  A    between atoms: _330  and  _331
REMARK  135  A    between atoms: _334  and  _336
REMARK  136  A    between atoms: _336  and  _337
REMARK  137  A    between atoms: _336  and  _339
REMARK  138  A    between atoms: _339  and  _340
REMARK  139  A    between atoms: _343  and  _345
REMARK  140  A    between atoms: _345  and  _346
REMARK  141  A    between atoms: _345  and  _348
REMARK  142  A    between atoms: _348  and  _349
REMARK  143  A    between atoms: _352  and  _354
REMARK  144  A    between atoms: _354  and  _355
REMARK  145  A    between atoms: _354  and  _357
REMARK  146  A    between atoms: _357  and  _358
REMARK  147  A    between atoms: _361  and  _363
REMARK  148  A    between atoms: _363  and  _364
REMARK  149  A    between atoms: _363  and  _366
REMARK  150  A    between atoms: _369  and  _371
REMARK  151  A    between atoms: _371  and  _372
REMARK  152  A    between atoms: _371  and  _374
REMARK  153  A    between atoms: _374  and  _375
REMARK  154  A    between atoms: _375  and  _376
REMARK  155  A    between atoms: _376  and  _377
REMARK  156  A    between atoms: _377  and  _378
REMARK  157  A    between atoms: _382  and  _384
REMARK  158  A    between atoms: _384  and  _385
REMARK  159  A    between atoms: _384  and  _387
REMARK  160  A    between atoms: _387  and  _388
REMARK  161  A    between atoms: _388  and  _389
REMARK  162  A    between atoms: _391  and  _393
REMARK  163  A    between atoms: _393  and  _394
REMARK  164  A    between atoms: _393  and  _396
REMARK  165  A    between atoms: _396  and  _397
REMARK  166  A    between atoms: _400  and  _402
REMARK  167  A    between atoms: _402  and  _403
REMARK  168  A    between atoms: _405  and  _407
REMARK  169  A    between atoms: _407  and  _408
REMARK  170  A    between atoms: _410  and  _412
REMARK  171  A    between atoms: _412  and  _413
REMARK  172  A    between atoms: _412  and  _415
REMARK  173  A    between atoms: _415  and  _416
REMARK  174  A    between atoms: _419  and  _421
REMARK  175  A    between atoms: _421  and  _422
REMARK  176  A    between atoms: _424  and  _426
REMARK  177  A    between atoms: _426  and  _427
REMARK  178  A    between atoms: _429  and  _431
REMARK  179  A    between atoms: _431  and  _432
REMARK  180  A    between atoms: _431  and  _434
REMARK  181  A    between atoms: _434  and  _435
REMARK  182  A    between atoms: _441  and  _443
REMARK  183  A    between atoms: _443  and  _444
REMARK  184  A    between atoms: _443  and  _446
REMARK  185  A    between atoms: _446  and  _447
REMARK  186  A    between atoms: _450  and  _452
REMARK  187  A    between atoms: _452  and  _453
REMARK  188  A    between atoms: _452  and  _455
REMARK  189  A    between atoms: _458  and  _460
REMARK  190  A    between atoms: _460  and  _461
REMARK  191  A    between atoms: _460  and  _463
REMARK  192  A    between atoms: _463  and  _464
REMARK  193  A    between atoms: _468  and  _469
REMARK  194  A    between atoms: _474  and  _476
REMARK  195  A    between atoms: _476  and  _477
REMARK  196  A    between atoms: _476  and  _479
REMARK  197  A    between atoms: _479  and  _480
REMARK  198  A    between atoms: _484  and  _485
REMARK  199  A    between atoms: _490  and  _492
REMARK  200  A    between atoms: _492  and  _493
REMARK  201  A    between atoms: _492  and  _495
REMARK  202  A    between atoms: _498  and  _500
REMARK  203  A    between atoms: _500  and  _501
REMARK  204  A    between atoms: _500  and  _503
REMARK  205  A    between atoms: _503  and  _504
REMARK  206  A    between atoms: _509  and  _511
REMARK  207  A    between atoms: _511  and  _512
REMARK  208  A    between atoms: _511  and  _514
REMARK  209  A    between atoms: _514  and  _515
REMARK  210  A    between atoms: _518  and  _520
REMARK  211  A    between atoms: _520  and  _521
REMARK  212  A    between atoms: _520  and  _523
REMARK  213  A    between atoms: _523  and  _524
REMARK  214  A    between atoms: _527  and  _529
REMARK  215  A    between atoms: _529  and  _530
REMARK  216  A    between atoms: _532  and  _534
REMARK  217  A    between atoms: _534  and  _535
REMARK  218  A    between atoms: _534  and  _537
REMARK  219  A    between atoms: _537  and  _538
REMARK  220  A    between atoms: _538  and  _539
REMARK  221  A    between atoms: _539  and  _540
REMARK  222  A    between atoms: _549  and  _551
REMARK  223  A    between atoms: _551  and  _552
REMARK  224  A    between atoms: _551  and  _554
REMARK  225  A    between atoms: _554  and  _555
REMARK                            x       y       z     vdW  Elec       q    Type
REMARK                         _______ _______ _______ _____ _____    ______ ____
ROOT
ATOM      1  O   HOH     1       8.869  20.954   7.716  0.00  0.00    +0.000 OA
ENDROOT
TORSDOF 0
REMARK  Name = ../refined-set-2016/3bva/3bva_pocket.pdb
REMARK  225 active torsions:
REMARK  status: ('A' for Active; 'I' for Inactive)
REMARK    1  A    between atoms: _1  and  _3
REMARK    2  A    between atoms: _3  and  _4
REMARK    3  A    between atoms: _3  and  _6
REMARK    4  A    between atoms: _6  and  _7
REMARK    5  A    between atoms: _7  and  _8
REMARK    6  A    between atoms: _8  and  _9
REMARK    7  A    between atoms: _18  and  _20
REMARK    8  A    between atoms: _20  and  _21
REMARK    9  A    between atoms: _20  and  _23
REMARK   10  A    between atoms: _23  and  _24
REMARK   11  A    between atoms: _27  and  _29
REMARK   12  A    between atoms: _29  and  _30
REMARK   13  A    between atoms: _29  and  _32
REMARK   14  A    between atoms: _32  and  _33
REMARK   15  A    between atoms: _38  and  _40
REMARK   16  A    between atoms: _40  and  _41
REMARK   17  A    between atoms: _40  and  _43
REMARK   18  A    between atoms: _43  and  _44
REMARK   19  A    between atoms: _47  and  _49
REMARK   20  A    between atoms: _49  and  _50
REMARK   21  A    between atoms: _52  and  _54
REMARK   22  A    between atoms: _54  and  _55
REMARK   23  A    between atoms: _58  and  _60
REMARK   24  A    between atoms: _60  and  _61
REMARK   25  A    between atoms: _60  and  _63
REMARK   26  A    between atoms: _63  and  _64
REMARK   27  A    between atoms: _67  and  _69
REMARK   28  A    between atoms: _69  and  _70
REMARK   29  A    between atoms: _69  and  _72
REMARK   30  A    between atoms: _72  and  _73
REMARK   31  A    between atoms: _76  and  _78
REMARK   32  A    between atoms: _78  and  _79
REMARK   33  A    between atoms: _78  and  _81
REMARK   34  A    between atoms: _81  and  _82
REMARK   35  A    between atoms: _85  and  _87
REMARK   36  A    between atoms: _87  and  _88
REMARK   37  A    between atoms: _87  and  _90
REMARK   38  A    between atoms: _93  and  _95
REMARK   39  A    between atoms: _95  and  _96
REMARK   40  A    between atoms: _95  and  _98
REMARK   41  A    between atoms: _98  and  _99
REMARK   42  A    between atoms: _99  and  _100
REMARK   43  A    between atoms: _100  and  _101
REMARK   44  A    between atoms: _101  and  _102
REMARK   45  A    between atoms: _106  and  _108
REMARK   46  A    between atoms: _108  and  _109
REMARK   47  A    between atoms: _108  and  _111
REMARK   48  A    between atoms: _111  and  _112
REMARK   49  A    between atoms: _112  and  _113
REMARK   50  A    between atoms: _115  and  _117
REMARK   51  A    between atoms: _117  and  _118
REMARK   52  A    between atoms: _117  and  _120
REMARK   53  A    between atoms: _120  and  _121
REMARK   54  A    between atoms: _124  and  _126
REMARK   55  A    between atoms: _126  and  _127
REMARK   56  A    between atoms: _129  and  _131
REMARK   57  A    between atoms: _131  and  _132
REMARK   58  A    between atoms: _134  and  _136
REMARK   59  A    between atoms: _136  and  _137
REMARK   60  A    between atoms: _136  and  _139
REMARK   61  A    between atoms: _139  and  _140
REMARK   62  A    between atoms: _143  and  _145
REMARK   63  A    between atoms: _145  and  _146
REMARK   64  A    between atoms: _148  and  _150
REMARK   65  A    between atoms: _150  and  _151
REMARK   66  A    between atoms: _153  and  _155
REMARK   67  A    between atoms: _155  and  _156
REMARK   68  A    between atoms: _155  and  _158
REMARK   69  A    between atoms: _158  and  _159
REMARK   70  A    between atoms: _165  and  _167
REMARK   71  A    between atoms: _167  and  _168
REMARK   72  A    between atoms: _167  and  _170
REMARK   73  A    between atoms: _170  and  _171
REMARK   74  A    between atoms: _174  and  _176
REMARK   75  A    between atoms: _176  and  _177
REMARK   76  A    between atoms: _176  and  _179
REMARK   77  A    between atoms: _182  and  _184
REMARK   78  A    between atoms: _184  and  _185
REMARK   79  A    between atoms: _184  and  _187
REMARK   80  A    between atoms: _187  and  _188
REMARK   81  A    between atoms: _191  and  _193
REMARK   82  A    between atoms: _193  and  _194
REMARK   83  A    between atoms: _193  and  _196
REMARK   84  A    between atoms: _196  and  _197
REMARK   85  A    between atoms: _201  and  _202
REMARK   86  A    between atoms: _207  and  _209
REMARK   87  A    between atoms: _209  and  _210
REMARK   88  A    between atoms: _209  and  _212
REMARK   89  A    between atoms: _215  and  _217
REMARK   90  A    between atoms: _217  and  _218
REMARK   91  A    between atoms: _217  and  _220
REMARK   92  A    between atoms: _220  and  _221
REMARK   93  A    between atoms: _226  and  _228
REMARK   94  A    between atoms: _228  and  _229
REMARK   95  A    between atoms: _228  and  _231
REMARK   96  A    between atoms: _231  and  _232
REMARK   97  A    between atoms: _235  and  _237
REMARK   98  A    between atoms: _237  and  _238
REMARK   99  A    between atoms: _240  and  _242
REMARK  100  A    between atoms: _242  and  _243
REMARK  101  A    between atoms: _242  and  _245
REMARK  102  A    between atoms: _245  and  _246
REMARK  103  A    between atoms: _246  and  _247
REMARK  104  A    between atoms: _247  and  _248
REMARK  105  A    between atoms: _257  and  _259
REMARK  106  A    between atoms: _259  and  _260
REMARK  107  A    between atoms: _259  and  _262
REMARK  108  A    between atoms: _262  and  _263
REMARK  109  A    between atoms: _268  and  _270
REMARK  110  A    between atoms: _270  and  _271
REMARK  111  A    between atoms: _270  and  _273
REMARK  112  A    between atoms: _273  and  _274
REMARK  113  A    between atoms: _274  and  _275
REMARK  114  A    between atoms: _275  and  _276
REMARK  115  A    between atoms: _285  and  _287
REMARK  116  A    between atoms: _287  and  _288
REMARK  117  A    between atoms: _287  and  _290
REMARK  118  A    between atoms: _290  and  _291
REMARK  119  A    between atoms: _294  and  _296
REMARK  120  A    between atoms: _296  and  _297
REMARK  121  A    between atoms: _296  and  _299
REMARK  122  A    between atoms: _299  and  _300
REMARK  123  A    between atoms: _303  and  _305
REMARK  124  A    between atoms: _305  and  _306
REMARK  125  A    between atoms: _305  and  _308
REMARK  126  A    between atoms: _308  and  _309
REMARK  127  A    between atoms: _314  and  _316
REMARK  128  A    between atoms: _316  and  _317
REMARK  129  A    between atoms: _316  and  _319
REMARK  130  A    between atoms: _319  and  _320
REMARK  131  A    between atoms: _323  and  _325
REMARK  132  A    between atoms: _325  and  _326
REMARK  133  A    between atoms: _328  and  _330
REMARK  134  A    between atoms: _330  and  _331
REMARK  135  A    between atoms: _334  and  _336
REMARK  136  A    between atoms: _336  and  _337
REMARK  137  A    between atoms: _336  and  _339
REMARK  138  A    between atoms: _339  and  _340
REMARK  139  A    between atoms: _343  and  _345
REMARK  140  A    between atoms: _345  and  _346
REMARK  141  A    between atoms: _345  and  _348
REMARK  142  A    between atoms: _348  and  _349
REMARK  143  A    between atoms: _352  and  _354
REMARK  144  A    between atoms: _354  and  _355
REMARK  145  A    between atoms: _354  and  _357
REMARK  146  A    between atoms: _357  and  _358
REMARK  147  A    between atoms: _361  and  _363
REMARK  148  A    between atoms: _363  and  _364
REMARK  149  A    between atoms: _363  and  _366
REMARK  150  A    between atoms: _369  and  _371
REMARK  151  A    between atoms: _371  and  _372
REMARK  152  A    between atoms: _371  and  _374
REMARK  153  A    between atoms: _374  and  _375
REMARK  154  A    between atoms: _375  and  _376
REMARK  155  A    between atoms: _376  and  _377
REMARK  156  A    between atoms: _377  and  _378
REMARK  157  A    between atoms: _382  and  _384
REMARK  158  A    between atoms: _384  and  _385
REMARK  159  A    between atoms: _384  and  _387
REMARK  160  A    between atoms: _387  and  _388
REMARK  161  A    between atoms: _388  and  _389
REMARK  162  A    between atoms: _391  and  _393
REMARK  163  A    between atoms: _393  and  _394
REMARK  164  A    between atoms: _393  and  _396
REMARK  165  A    between atoms: _396  and  _397
REMARK  166  A    between atoms: _400  and  _402
REMARK  167  A    between atoms: _402  and  _403
REMARK  168  A    between atoms: _405  and  _407
REMARK  169  A    between atoms: _407  and  _408
REMARK  170  A    between atoms: _410  and  _412
REMARK  171  A    between atoms: _412  and  _413
REMARK  172  A    between atoms: _412  and  _415
REMARK  173  A    between atoms: _415  and  _416
REMARK  174  A    between atoms: _419  and  _421
REMARK  175  A    between atoms: _421  and  _422
REMARK  176  A    between atoms: _424  and  _426
REMARK  177  A    between atoms: _426  and  _427
REMARK  178  A    between atoms: _429  and  _431
REMARK  179  A    between atoms: _431  and  _432
REMARK  180  A    between atoms: _431  and  _434
REMARK  181  A    between atoms: _434  and  _435
REMARK  182  A    between atoms: _441  and  _443
REMARK  183  A    between atoms: _443  and  _444
REMARK  184  A    between atoms: _443  and  _446
REMARK  185  A    between atoms: _446  and  _447
REMARK  186  A    between atoms: _450  and  _452
REMARK  187  A    between atoms: _452  and  _453
REMARK  188  A    between atoms: _452  and  _455
REMARK  189  A    between atoms: _458  and  _460
REMARK  190  A    between atoms: _460  and  _461
REMARK  191  A    between atoms: _460  and  _463
REMARK  192  A    between atoms: _463  and  _464
REMARK  193  A    between atoms: _468  and  _469
REMARK  194  A    between atoms: _474  and  _476
REMARK  195  A    between atoms: _476  and  _477
REMARK  196  A    between atoms: _476  and  _479
REMARK  197  A    between atoms: _479  and  _480
REMARK  198  A    between atoms: _484  and  _485
REMARK  199  A    between atoms: _490  and  _492
REMARK  200  A    between atoms: _492  and  _493
REMARK  201  A    between atoms: _492  and  _495
REMARK  202  A    between atoms: _498  and  _500
REMARK  203  A    between atoms: _500  and  _501
REMARK  204  A    between atoms: _500  and  _503
REMARK  205  A    between atoms: _503  and  _504
REMARK  206  A    between atoms: _509  and  _511
REMARK  207  A    between atoms: _511  and  _512
REMARK  208  A    between atoms: _511  and  _514
REMARK  209  A    between atoms: _514  and  _515
REMARK  210  A    between atoms: _518  and  _520
REMARK  211  A    between atoms: _520  and  _521
REMARK  212  A    between atoms: _520  and  _523
REMARK  213  A    between atoms: _523  and  _524
REMARK  214  A    between atoms: _527  and  _529
REMARK  215  A    between atoms: _529  and  _530
REMARK  216  A    between atoms: _532  and  _534
REMARK  217  A    between atoms: _534  and  _535
REMARK  218  A    between atoms: _534  and  _537
REMARK  219  A    between atoms: _537  and  _538
REMARK  220  A    between atoms: _538  and  _539
REMARK  221  A    between atoms: _539  and  _540
REMARK  222  A    between atoms: _549  and  _551
REMARK  223  A    between atoms: _551  and  _552
REMARK  224  A    between atoms: _551  and  _554
REMARK  225  A    between atoms: _554  and  _555
REMARK                            x       y       z     vdW  Elec       q    Type
REMARK                         _______ _______ _______ _____ _____    ______ ____
ROOT
ATOM      1  O   HOH     1       7.465  23.864  18.439  0.00  0.00    +0.000 OA
ENDROOT
TORSDOF 0
REMARK  Name = ../refined-set-2016/3bva/3bva_pocket.pdb
REMARK  225 active torsions:
REMARK  status: ('A' for Active; 'I' for Inactive)
REMARK    1  A    between atoms: _1  and  _3
REMARK    2  A    between atoms: _3  and  _4
REMARK    3  A    between atoms: _3  and  _6
REMARK    4  A    between atoms: _6  and  _7
REMARK    5  A    between atoms: _7  and  _8
REMARK    6  A    between atoms: _8  and  _9
REMARK    7  A    between atoms: _18  and  _20
REMARK    8  A    between atoms: _20  and  _21
REMARK    9  A    between atoms: _20  and  _23
REMARK   10  A    between atoms: _23  and  _24
REMARK   11  A    between atoms: _27  and  _29
REMARK   12  A    between atoms: _29  and  _30
REMARK   13  A    between atoms: _29  and  _32
REMARK   14  A    between atoms: _32  and  _33
REMARK   15  A    between atoms: _38  and  _40
REMARK   16  A    between atoms: _40  and  _41
REMARK   17  A    between atoms: _40  and  _43
REMARK   18  A    between atoms: _43  and  _44
REMARK   19  A    between atoms: _47  and  _49
REMARK   20  A    between atoms: _49  and  _50
REMARK   21  A    between atoms: _52  and  _54
REMARK   22  A    between atoms: _54  and  _55
REMARK   23  A    between atoms: _58  and  _60
REMARK   24  A    between atoms: _60  and  _61
REMARK   25  A    between atoms: _60  and  _63
REMARK   26  A    between atoms: _63  and  _64
REMARK   27  A    between atoms: _67  and  _69
REMARK   28  A    between atoms: _69  and  _70
REMARK   29  A    between atoms: _69  and  _72
REMARK   30  A    between atoms: _72  and  _73
REMARK   31  A    between atoms: _76  and  _78
REMARK   32  A    between atoms: _78  and  _79
REMARK   33  A    between atoms: _78  and  _81
REMARK   34  A    between atoms: _81  and  _82
REMARK   35  A    between atoms: _85  and  _87
REMARK   36  A    between atoms: _87  and  _88
REMARK   37  A    between atoms: _87  and  _90
REMARK   38  A    between atoms: _93  and  _95
REMARK   39  A    between atoms: _95  and  _96
REMARK   40  A    between atoms: _95  and  _98
REMARK   41  A    between atoms: _98  and  _99
REMARK   42  A    between atoms: _99  and  _100
REMARK   43  A    between atoms: _100  and  _101
REMARK   44  A    between atoms: _101  and  _102
REMARK   45  A    between atoms: _106  and  _108
REMARK   46  A    between atoms: _108  and  _109
REMARK   47  A    between atoms: _108  and  _111
REMARK   48  A    between atoms: _111  and  _112
REMARK   49  A    between atoms: _112  and  _113
REMARK   50  A    between atoms: _115  and  _117
REMARK   51  A    between atoms: _117  and  _118
REMARK   52  A    between atoms: _117  and  _120
REMARK   53  A    between atoms: _120  and  _121
REMARK   54  A    between atoms: _124  and  _126
REMARK   55  A    between atoms: _126  and  _127
REMARK   56  A    between atoms: _129  and  _131
REMARK   57  A    between atoms: _131  and  _132
REMARK   58  A    between atoms: _134  and  _136
REMARK   59  A    between atoms: _136  and  _137
REMARK   60  A    between atoms: _136  and  _139
REMARK   61  A    between atoms: _139  and  _140
REMARK   62  A    between atoms: _143  and  _145
REMARK   63  A    between atoms: _145  and  _146
REMARK   64  A    between atoms: _148  and  _150
REMARK   65  A    between atoms: _150  and  _151
REMARK   66  A    between atoms: _153  and  _155
REMARK   67  A    between atoms: _155  and  _156
REMARK   68  A    between atoms: _155  and  _158
REMARK   69  A    between atoms: _158  and  _159
REMARK   70  A    between atoms: _165  and  _167
REMARK   71  A    between atoms: _167  and  _168
REMARK   72  A    between atoms: _167  and  _170
REMARK   73  A    between atoms: _170  and  _171
REMARK   74  A    between atoms: _174  and  _176
REMARK   75  A    between atoms: _176  and  _177
REMARK   76  A    between atoms: _176  and  _179
REMARK   77  A    between atoms: _182  and  _184
REMARK   78  A    between atoms: _184  and  _185
REMARK   79  A    between atoms: _184  and  _187
REMARK   80  A    between atoms: _187  and  _188
REMARK   81  A    between atoms: _191  and  _193
REMARK   82  A    between atoms: _193  and  _194
REMARK   83  A    between atoms: _193  and  _196
REMARK   84  A    between atoms: _196  and  _197
REMARK   85  A    between atoms: _201  and  _202
REMARK   86  A    between atoms: _207  and  _209
REMARK   87  A    between atoms: _209  and  _210
REMARK   88  A    between atoms: _209  and  _212
REMARK   89  A    between atoms: _215  and  _217
REMARK   90  A    between atoms: _217  and  _218
REMARK   91  A    between atoms: _217  and  _220
REMARK   92  A    between atoms: _220  and  _221
REMARK   93  A    between atoms: _226  and  _228
REMARK   94  A    between atoms: _228  and  _229
REMARK   95  A    between atoms: _228  and  _231
REMARK   96  A    between atoms: _231  and  _232
REMARK   97  A    between atoms: _235  and  _237
REMARK   98  A    between atoms: _237  and  _238
REMARK   99  A    between atoms: _240  and  _242
REMARK  100  A    between atoms: _242  and  _243
REMARK  101  A    between atoms: _242  and  _245
REMARK  102  A    between atoms: _245  and  _246
REMARK  103  A    between atoms: _246  and  _247
REMARK  104  A    between atoms: _247  and  _248
REMARK  105  A    between atoms: _257  and  _259
REMARK  106  A    between atoms: _259  and  _260
REMARK  107  A    between atoms: _259  and  _262
REMARK  108  A    between atoms: _262  and  _263
REMARK  109  A    between atoms: _268  and  _270
REMARK  110  A    between atoms: _270  and  _271
REMARK  111  A    between atoms: _270  and  _273
REMARK  112  A    between atoms: _273  and  _274
REMARK  113  A    between atoms: _274  and  _275
REMARK  114  A    between atoms: _275  and  _276
REMARK  115  A    between atoms: _285  and  _287
REMARK  116  A    between atoms: _287  and  _288
REMARK  117  A    between atoms: _287  and  _290
REMARK  118  A    between atoms: _290  and  _291
REMARK  119  A    between atoms: _294  and  _296
REMARK  120  A    between atoms: _296  and  _297
REMARK  121  A    between atoms: _296  and  _299
REMARK  122  A    between atoms: _299  and  _300
REMARK  123  A    between atoms: _303  and  _305
REMARK  124  A    between atoms: _305  and  _306
REMARK  125  A    between atoms: _305  and  _308
REMARK  126  A    between atoms: _308  and  _309
REMARK  127  A    between atoms: _314  and  _316
REMARK  128  A    between atoms: _316  and  _317
REMARK  129  A    between atoms: _316  and  _319
REMARK  130  A    between atoms: _319  and  _320
REMARK  131  A    between atoms: _323  and  _325
REMARK  132  A    between atoms: _325  and  _326
REMARK  133  A    between atoms: _328  and  _330
REMARK  134  A    between atoms: _330  and  _331
REMARK  135  A    between atoms: _334  and  _336
REMARK  136  A    between atoms: _336  and  _337
REMARK  137  A    between atoms: _336  and  _339
REMARK  138  A    between atoms: _339  and  _340
REMARK  139  A    between atoms: _343  and  _345
REMARK  140  A    between atoms: _345  and  _346
REMARK  141  A    between atoms: _345  and  _348
REMARK  142  A    between atoms: _348  and  _349
REMARK  143  A    between atoms: _352  and  _354
REMARK  144  A    between atoms: _354  and  _355
REMARK  145  A    between atoms: _354  and  _357
REMARK  146  A    between atoms: _357  and  _358
REMARK  147  A    between atoms: _361  and  _363
REMARK  148  A    between atoms: _363  and  _364
REMARK  149  A    between atoms: _363  and  _366
REMARK  150  A    between atoms: _369  and  _371
REMARK  151  A    between atoms: _371  and  _372
REMARK  152  A    between atoms: _371  and  _374
REMARK  153  A    between atoms: _374  and  _375
REMARK  154  A    between atoms: _375  and  _376
REMARK  155  A    between atoms: _376  and  _377
REMARK  156  A    between atoms: _377  and  _378
REMARK  157  A    between atoms: _382  and  _384
REMARK  158  A    between atoms: _384  and  _385
REMARK  159  A    between atoms: _384  and  _387
REMARK  160  A    between atoms: _387  and  _388
REMARK  161  A    between atoms: _388  and  _389
REMARK  162  A    between atoms: _391  and  _393
REMARK  163  A    between atoms: _393  and  _394
REMARK  164  A    between atoms: _393  and  _396
REMARK  165  A    between atoms: _396  and  _397
REMARK  166  A    between atoms: _400  and  _402
REMARK  167  A    between atoms: _402  and  _403
REMARK  168  A    between atoms: _405  and  _407
REMARK  169  A    between atoms: _407  and  _408
REMARK  170  A    between atoms: _410  and  _412
REMARK  171  A    between atoms: _412  and  _413
REMARK  172  A    between atoms: _412  and  _415
REMARK  173  A    between atoms: _415  and  _416
REMARK  174  A    between atoms: _419  and  _421
REMARK  175  A    between atoms: _421  and  _422
REMARK  176  A    between atoms: _424  and  _426
REMARK  177  A    between atoms: _426  and  _427
REMARK  178  A    between atoms: _429  and  _431
REMARK  179  A    between atoms: _431  and  _432
REMARK  180  A    between atoms: _431  and  _434
REMARK  181  A    between atoms: _434  and  _435
REMARK  182  A    between atoms: _441  and  _443
REMARK  183  A    between atoms: _443  and  _444
REMARK  184  A    between atoms: _443  and  _446
REMARK  185  A    between atoms: _446  and  _447
REMARK  186  A    between atoms: _450  and  _452
REMARK  187  A    between atoms: _452  and  _453
REMARK  188  A    between atoms: _452  and  _455
REMARK  189  A    between atoms: _458  and  _460
REMARK  190  A    between atoms: _460  and  _461
REMARK  191  A    between atoms: _460  and  _463
REMARK  192  A    between atoms: _463  and  _464
REMARK  193  A    between atoms: _468  and  _469
REMARK  194  A    between atoms: _474  and  _476
REMARK  195  A    between atoms: _476  and  _477
REMARK  196  A    between atoms: _476  and  _479
REMARK  197  A    between atoms: _479  and  _480
REMARK  198  A    between atoms: _484  and  _485
REMARK  199  A    between atoms: _490  and  _492
REMARK  200  A    between atoms: _492  and  _493
REMARK  201  A    between atoms: _492  and  _495
REMARK  202  A    between atoms: _498  and  _500
REMARK  203  A    between atoms: _500  and  _501
REMARK  204  A    between atoms: _500  and  _503
REMARK  205  A    between atoms: _503  and  _504
REMARK  206  A    between atoms: _509  and  _511
REMARK  207  A    between atoms: _511  and  _512
REMARK  208  A    between atoms: _511  and  _514
REMARK  209  A    between atoms: _514  and  _515
REMARK  210  A    between atoms: _518  and  _520
REMARK  211  A    between atoms: _520  and  _521
REMARK  212  A    between atoms: _520  and  _523
REMARK  213  A    between atoms: _523  and  _524
REMARK  214  A    between atoms: _527  and  _529
REMARK  215  A    between atoms: _529  and  _530
REMARK  216  A    between atoms: _532  and  _534
REMARK  217  A    between atoms: _534  and  _535
REMARK  218  A    between atoms: _534  and  _537
REMARK  219  A    between atoms: _537  and  _538
REMARK  220  A    between atoms: _538  and  _539
REMARK  221  A    between atoms: _539  and  _540
REMARK  222  A    between atoms: _549  and  _551
REMARK  223  A    between atoms: _551  and  _552
REMARK  224  A    between atoms: _551  and  _554
REMARK  225  A    between atoms: _554  and  _555
REMARK                            x       y       z     vdW  Elec       q    Type
REMARK                         _______ _______ _______ _____ _____    ______ ____
ROOT
ATOM      1  O   HOH     1       8.820  21.877  16.973  0.00  0.00    +0.000 OA
ENDROOT
TORSDOF 0
REMARK  Name = ../refined-set-2016/3bva/3bva_pocket.pdb
REMARK  225 active torsions:
REMARK  status: ('A' for Active; 'I' for Inactive)
REMARK    1  A    between atoms: _1  and  _3
REMARK    2  A    between atoms: _3  and  _4
REMARK    3  A    between atoms: _3  and  _6
REMARK    4  A    between atoms: _6  and  _7
REMARK    5  A    between atoms: _7  and  _8
REMARK    6  A    between atoms: _8  and  _9
REMARK    7  A    between atoms: _18  and  _20
REMARK    8  A    between atoms: _20  and  _21
REMARK    9  A    between atoms: _20  and  _23
REMARK   10  A    between atoms: _23  and  _24
REMARK   11  A    between atoms: _27  and  _29
REMARK   12  A    between atoms: _29  and  _30
REMARK   13  A    between atoms: _29  and  _32
REMARK   14  A    between atoms: _32  and  _33
REMARK   15  A    between atoms: _38  and  _40
REMARK   16  A    between atoms: _40  and  _41
REMARK   17  A    between atoms: _40  and  _43
REMARK   18  A    between atoms: _43  and  _44
REMARK   19  A    between atoms: _47  and  _49
REMARK   20  A    between atoms: _49  and  _50
REMARK   21  A    between atoms: _52  and  _54
REMARK   22  A    between atoms: _54  and  _55
REMARK   23  A    between atoms: _58  and  _60
REMARK   24  A    between atoms: _60  and  _61
REMARK   25  A    between atoms: _60  and  _63
REMARK   26  A    between atoms: _63  and  _64
REMARK   27  A    between atoms: _67  and  _69
REMARK   28  A    between atoms: _69  and  _70
REMARK   29  A    between atoms: _69  and  _72
REMARK   30  A    between atoms: _72  and  _73
REMARK   31  A    between atoms: _76  and  _78
REMARK   32  A    between atoms: _78  and  _79
REMARK   33  A    between atoms: _78  and  _81
REMARK   34  A    between atoms: _81  and  _82
REMARK   35  A    between atoms: _85  and  _87
REMARK   36  A    between atoms: _87  and  _88
REMARK   37  A    between atoms: _87  and  _90
REMARK   38  A    between atoms: _93  and  _95
REMARK   39  A    between atoms: _95  and  _96
REMARK   40  A    between atoms: _95  and  _98
REMARK   41  A    between atoms: _98  and  _99
REMARK   42  A    between atoms: _99  and  _100
REMARK   43  A    between atoms: _100  and  _101
REMARK   44  A    between atoms: _101  and  _102
REMARK   45  A    between atoms: _106  and  _108
REMARK   46  A    between atoms: _108  and  _109
REMARK   47  A    between atoms: _108  and  _111
REMARK   48  A    between atoms: _111  and  _112
REMARK   49  A    between atoms: _112  and  _113
REMARK   50  A    between atoms: _115  and  _117
REMARK   51  A    between atoms: _117  and  _118
REMARK   52  A    between atoms: _117  and  _120
REMARK   53  A    between atoms: _120  and  _121
REMARK   54  A    between atoms: _124  and  _126
REMARK   55  A    between atoms: _126  and  _127
REMARK   56  A    between atoms: _129  and  _131
REMARK   57  A    between atoms: _131  and  _132
REMARK   58  A    between atoms: _134  and  _136
REMARK   59  A    between atoms: _136  and  _137
REMARK   60  A    between atoms: _136  and  _139
REMARK   61  A    between atoms: _139  and  _140
REMARK   62  A    between atoms: _143  and  _145
REMARK   63  A    between atoms: _145  and  _146
REMARK   64  A    between atoms: _148  and  _150
REMARK   65  A    between atoms: _150  and  _151
REMARK   66  A    between atoms: _153  and  _155
REMARK   67  A    between atoms: _155  and  _156
REMARK   68  A    between atoms: _155  and  _158
REMARK   69  A    between atoms: _158  and  _159
REMARK   70  A    between atoms: _165  and  _167
REMARK   71  A    between atoms: _167  and  _168
REMARK   72  A    between atoms: _167  and  _170
REMARK   73  A    between atoms: _170  and  _171
REMARK   74  A    between atoms: _174  and  _176
REMARK   75  A    between atoms: _176  and  _177
REMARK   76  A    between atoms: _176  and  _179
REMARK   77  A    between atoms: _182  and  _184
REMARK   78  A    between atoms: _184  and  _185
REMARK   79  A    between atoms: _184  and  _187
REMARK   80  A    between atoms: _187  and  _188
REMARK   81  A    between atoms: _191  and  _193
REMARK   82  A    between atoms: _193  and  _194
REMARK   83  A    between atoms: _193  and  _196
REMARK   84  A    between atoms: _196  and  _197
REMARK   85  A    between atoms: _201  and  _202
REMARK   86  A    between atoms: _207  and  _209
REMARK   87  A    between atoms: _209  and  _210
REMARK   88  A    between atoms: _209  and  _212
REMARK   89  A    between atoms: _215  and  _217
REMARK   90  A    between atoms: _217  and  _218
REMARK   91  A    between atoms: _217  and  _220
REMARK   92  A    between atoms: _220  and  _221
REMARK   93  A    between atoms: _226  and  _228
REMARK   94  A    between atoms: _228  and  _229
REMARK   95  A    between atoms: _228  and  _231
REMARK   96  A    between atoms: _231  and  _232
REMARK   97  A    between atoms: _235  and  _237
REMARK   98  A    between atoms: _237  and  _238
REMARK   99  A    between atoms: _240  and  _242
REMARK  100  A    between atoms: _242  and  _243
REMARK  101  A    between atoms: _242  and  _245
REMARK  102  A    between atoms: _245  and  _246
REMARK  103  A    between atoms: _246  and  _247
REMARK  104  A    between atoms: _247  and  _248
REMARK  105  A    between atoms: _257  and  _259
REMARK  106  A    between atoms: _259  and  _260
REMARK  107  A    between atoms: _259  and  _262
REMARK  108  A    between atoms: _262  and  _263
REMARK  109  A    between atoms: _268  and  _270
REMARK  110  A    between atoms: _270  and  _271
REMARK  111  A    between atoms: _270  and  _273
REMARK  112  A    between atoms: _273  and  _274
REMARK  113  A    between atoms: _274  and  _275
REMARK  114  A    between atoms: _275  and  _276
REMARK  115  A    between atoms: _285  and  _287
REMARK  116  A    between atoms: _287  and  _288
REMARK  117  A    between atoms: _287  and  _290
REMARK  118  A    between atoms: _290  and  _291
REMARK  119  A    between atoms: _294  and  _296
REMARK  120  A    between atoms: _296  and  _297
REMARK  121  A    between atoms: _296  and  _299
REMARK  122  A    between atoms: _299  and  _300
REMARK  123  A    between atoms: _303  and  _305
REMARK  124  A    between atoms: _305  and  _306
REMARK  125  A    between atoms: _305  and  _308
REMARK  126  A    between atoms: _308  and  _309
REMARK  127  A    between atoms: _314  and  _316
REMARK  128  A    between atoms: _316  and  _317
REMARK  129  A    between atoms: _316  and  _319
REMARK  130  A    between atoms: _319  and  _320
REMARK  131  A    between atoms: _323  and  _325
REMARK  132  A    between atoms: _325  and  _326
REMARK  133  A    between atoms: _328  and  _330
REMARK  134  A    between atoms: _330  and  _331
REMARK  135  A    between atoms: _334  and  _336
REMARK  136  A    between atoms: _336  and  _337
REMARK  137  A    between atoms: _336  and  _339
REMARK  138  A    between atoms: _339  and  _340
REMARK  139  A    between atoms: _343  and  _345
REMARK  140  A    between atoms: _345  and  _346
REMARK  141  A    between atoms: _345  and  _348
REMARK  142  A    between atoms: _348  and  _349
REMARK  143  A    between atoms: _352  and  _354
REMARK  144  A    between atoms: _354  and  _355
REMARK  145  A    between atoms: _354  and  _357
REMARK  146  A    between atoms: _357  and  _358
REMARK  147  A    between atoms: _361  and  _363
REMARK  148  A    between atoms: _363  and  _364
REMARK  149  A    between atoms: _363  and  _366
REMARK  150  A    between atoms: _369  and  _371
REMARK  151  A    between atoms: _371  and  _372
REMARK  152  A    between atoms: _371  and  _374
REMARK  153  A    between atoms: _374  and  _375
REMARK  154  A    between atoms: _375  and  _376
REMARK  155  A    between atoms: _376  and  _377
REMARK  156  A    between atoms: _377  and  _378
REMARK  157  A    between atoms: _382  and  _384
REMARK  158  A    between atoms: _384  and  _385
REMARK  159  A    between atoms: _384  and  _387
REMARK  160  A    between atoms: _387  and  _388
REMARK  161  A    between atoms: _388  and  _389
REMARK  162  A    between atoms: _391  and  _393
REMARK  163  A    between atoms: _393  and  _394
REMARK  164  A    between atoms: _393  and  _396
REMARK  165  A    between atoms: _396  and  _397
REMARK  166  A    between atoms: _400  and  _402
REMARK  167  A    between atoms: _402  and  _403
REMARK  168  A    between atoms: _405  and  _407
REMARK  169  A    between atoms: _407  and  _408
REMARK  170  A    between atoms: _410  and  _412
REMARK  171  A    between atoms: _412  and  _413
REMARK  172  A    between atoms: _412  and  _415
REMARK  173  A    between atoms: _415  and  _416
REMARK  174  A    between atoms: _419  and  _421
REMARK  175  A    between atoms: _421  and  _422
REMARK  176  A    between atoms: _424  and  _426
REMARK  177  A    between atoms: _426  and  _427
REMARK  178  A    between atoms: _429  and  _431
REMARK  179  A    between atoms: _431  and  _432
REMARK  180  A    between atoms: _431  and  _434
REMARK  181  A    between atoms: _434  and  _435
REMARK  182  A    between atoms: _441  and  _443
REMARK  183  A    between atoms: _443  and  _444
REMARK  184  A    between atoms: _443  and  _446
REMARK  185  A    between atoms: _446  and  _447
REMARK  186  A    between atoms: _450  and  _452
REMARK  187  A    between atoms: _452  and  _453
REMARK  188  A    between atoms: _452  and  _455
REMARK  189  A    between atoms: _458  and  _460
REMARK  190  A    between atoms: _460  and  _461
REMARK  191  A    between atoms: _460  and  _463
REMARK  192  A    between atoms: _463  and  _464
REMARK  193  A    between atoms: _468  and  _469
REMARK  194  A    between atoms: _474  and  _476
REMARK  195  A    between atoms: _476  and  _477
REMARK  196  A    between atoms: _476  and  _479
REMARK  197  A    between atoms: _479  and  _480
REMARK  198  A    between atoms: _484  and  _485
REMARK  199  A    between atoms: _490  and  _492
REMARK  200  A    between atoms: _492  and  _493
REMARK  201  A    between atoms: _492  and  _495
REMARK  202  A    between atoms: _498  and  _500
REMARK  203  A    between atoms: _500  and  _501
REMARK  204  A    between atoms: _500  and  _503
REMARK  205  A    between atoms: _503  and  _504
REMARK  206  A    between atoms: _509  and  _511
REMARK  207  A    between atoms: _511  and  _512
REMARK  208  A    between atoms: _511  and  _514
REMARK  209  A    between atoms: _514  and  _515
REMARK  210  A    between atoms: _518  and  _520
REMARK  211  A    between atoms: _520  and  _521
REMARK  212  A    between atoms: _520  and  _523
REMARK  213  A    between atoms: _523  and  _524
REMARK  214  A    between atoms: _527  and  _529
REMARK  215  A    between atoms: _529  and  _530
REMARK  216  A    between atoms: _532  and  _534
REMARK  217  A    between atoms: _534  and  _535
REMARK  218  A    between atoms: _534  and  _537
REMARK  219  A    between atoms: _537  and  _538
REMARK  220  A    between atoms: _538  and  _539
REMARK  221  A    between atoms: _539  and  _540
REMARK  222  A    between atoms: _549  and  _551
REMARK  223  A    between atoms: _551  and  _552
REMARK  224  A    between atoms: _551  and  _554
REMARK  225  A    between atoms: _554  and  _555
REMARK                            x       y       z     vdW  Elec       q    Type
REMARK                         _______ _______ _______ _____ _____    ______ ____
ROOT
ATOM      1  O   HOH     1      18.089  20.772  16.980  0.00  0.00    +0.000 OA
ENDROOT
TORSDOF 0
REMARK  Name = ../refined-set-2016/3bva/3bva_pocket.pdb
REMARK  225 active torsions:
REMARK  status: ('A' for Active; 'I' for Inactive)
REMARK    1  A    between atoms: _1  and  _3
REMARK    2  A    between atoms: _3  and  _4
REMARK    3  A    between atoms: _3  and  _6
REMARK    4  A    between atoms: _6  and  _7
REMARK    5  A    between atoms: _7  and  _8
REMARK    6  A    between atoms: _8  and  _9
REMARK    7  A    between atoms: _18  and  _20
REMARK    8  A    between atoms: _20  and  _21
REMARK    9  A    between atoms: _20  and  _23
REMARK   10  A    between atoms: _23  and  _24
REMARK   11  A    between atoms: _27  and  _29
REMARK   12  A    between atoms: _29  and  _30
REMARK   13  A    between atoms: _29  and  _32
REMARK   14  A    between atoms: _32  and  _33
REMARK   15  A    between atoms: _38  and  _40
REMARK   16  A    between atoms: _40  and  _41
REMARK   17  A    between atoms: _40  and  _43
REMARK   18  A    between atoms: _43  and  _44
REMARK   19  A    between atoms: _47  and  _49
REMARK   20  A    between atoms: _49  and  _50
REMARK   21  A    between atoms: _52  and  _54
REMARK   22  A    between atoms: _54  and  _55
REMARK   23  A    between atoms: _58  and  _60
REMARK   24  A    between atoms: _60  and  _61
REMARK   25  A    between atoms: _60  and  _63
REMARK   26  A    between atoms: _63  and  _64
REMARK   27  A    between atoms: _67  and  _69
REMARK   28  A    between atoms: _69  and  _70
REMARK   29  A    between atoms: _69  and  _72
REMARK   30  A    between atoms: _72  and  _73
REMARK   31  A    between atoms: _76  and  _78
REMARK   32  A    between atoms: _78  and  _79
REMARK   33  A    between atoms: _78  and  _81
REMARK   34  A    between atoms: _81  and  _82
REMARK   35  A    between atoms: _85  and  _87
REMARK   36  A    between atoms: _87  and  _88
REMARK   37  A    between atoms: _87  and  _90
REMARK   38  A    between atoms: _93  and  _95
REMARK   39  A    between atoms: _95  and  _96
REMARK   40  A    between atoms: _95  and  _98
REMARK   41  A    between atoms: _98  and  _99
REMARK   42  A    between atoms: _99  and  _100
REMARK   43  A    between atoms: _100  and  _101
REMARK   44  A    between atoms: _101  and  _102
REMARK   45  A    between atoms: _106  and  _108
REMARK   46  A    between atoms: _108  and  _109
REMARK   47  A    between atoms: _108  and  _111
REMARK   48  A    between atoms: _111  and  _112
REMARK   49  A    between atoms: _112  and  _113
REMARK   50  A    between atoms: _115  and  _117
REMARK   51  A    between atoms: _117  and  _118
REMARK   52  A    between atoms: _117  and  _120
REMARK   53  A    between atoms: _120  and  _121
REMARK   54  A    between atoms: _124  and  _126
REMARK   55  A    between atoms: _126  and  _127
REMARK   56  A    between atoms: _129  and  _131
REMARK   57  A    between atoms: _131  and  _132
REMARK   58  A    between atoms: _134  and  _136
REMARK   59  A    between atoms: _136  and  _137
REMARK   60  A    between atoms: _136  and  _139
REMARK   61  A    between atoms: _139  and  _140
REMARK   62  A    between atoms: _143  and  _145
REMARK   63  A    between atoms: _145  and  _146
REMARK   64  A    between atoms: _148  and  _150
REMARK   65  A    between atoms: _150  and  _151
REMARK   66  A    between atoms: _153  and  _155
REMARK   67  A    between atoms: _155  and  _156
REMARK   68  A    between atoms: _155  and  _158
REMARK   69  A    between atoms: _158  and  _159
REMARK   70  A    between atoms: _165  and  _167
REMARK   71  A    between atoms: _167  and  _168
REMARK   72  A    between atoms: _167  and  _170
REMARK   73  A    between atoms: _170  and  _171
REMARK   74  A    between atoms: _174  and  _176
REMARK   75  A    between atoms: _176  and  _177
REMARK   76  A    between atoms: _176  and  _179
REMARK   77  A    between atoms: _182  and  _184
REMARK   78  A    between atoms: _184  and  _185
REMARK   79  A    between atoms: _184  and  _187
REMARK   80  A    between atoms: _187  and  _188
REMARK   81  A    between atoms: _191  and  _193
REMARK   82  A    between atoms: _193  and  _194
REMARK   83  A    between atoms: _193  and  _196
REMARK   84  A    between atoms: _196  and  _197
REMARK   85  A    between atoms: _201  and  _202
REMARK   86  A    between atoms: _207  and  _209
REMARK   87  A    between atoms: _209  and  _210
REMARK   88  A    between atoms: _209  and  _212
REMARK   89  A    between atoms: _215  and  _217
REMARK   90  A    between atoms: _217  and  _218
REMARK   91  A    between atoms: _217  and  _220
REMARK   92  A    between atoms: _220  and  _221
REMARK   93  A    between atoms: _226  and  _228
REMARK   94  A    between atoms: _228  and  _229
REMARK   95  A    between atoms: _228  and  _231
REMARK   96  A    between atoms: _231  and  _232
REMARK   97  A    between atoms: _235  and  _237
REMARK   98  A    between atoms: _237  and  _238
REMARK   99  A    between atoms: _240  and  _242
REMARK  100  A    between atoms: _242  and  _243
REMARK  101  A    between atoms: _242  and  _245
REMARK  102  A    between atoms: _245  and  _246
REMARK  103  A    between atoms: _246  and  _247
REMARK  104  A    between atoms: _247  and  _248
REMARK  105  A    between atoms: _257  and  _259
REMARK  106  A    between atoms: _259  and  _260
REMARK  107  A    between atoms: _259  and  _262
REMARK  108  A    between atoms: _262  and  _263
REMARK  109  A    between atoms: _268  and  _270
REMARK  110  A    between atoms: _270  and  _271
REMARK  111  A    between atoms: _270  and  _273
REMARK  112  A    between atoms: _273  and  _274
REMARK  113  A    between atoms: _274  and  _275
REMARK  114  A    between atoms: _275  and  _276
REMARK  115  A    between atoms: _285  and  _287
REMARK  116  A    between atoms: _287  and  _288
REMARK  117  A    between atoms: _287  and  _290
REMARK  118  A    between atoms: _290  and  _291
REMARK  119  A    between atoms: _294  and  _296
REMARK  120  A    between atoms: _296  and  _297
REMARK  121  A    between atoms: _296  and  _299
REMARK  122  A    between atoms: _299  and  _300
REMARK  123  A    between atoms: _303  and  _305
REMARK  124  A    between atoms: _305  and  _306
REMARK  125  A    between atoms: _305  and  _308
REMARK  126  A    between atoms: _308  and  _309
REMARK  127  A    between atoms: _314  and  _316
REMARK  128  A    between atoms: _316  and  _317
REMARK  129  A    between atoms: _316  and  _319
REMARK  130  A    between atoms: _319  and  _320
REMARK  131  A    between atoms: _323  and  _325
REMARK  132  A    between atoms: _325  and  _326
REMARK  133  A    between atoms: _328  and  _330
REMARK  134  A    between atoms: _330  and  _331
REMARK  135  A    between atoms: _334  and  _336
REMARK  136  A    between atoms: _336  and  _337
REMARK  137  A    between atoms: _336  and  _339
REMARK  138  A    between atoms: _339  and  _340
REMARK  139  A    between atoms: _343  and  _345
REMARK  140  A    between atoms: _345  and  _346
REMARK  141  A    between atoms: _345  and  _348
REMARK  142  A    between atoms: _348  and  _349
REMARK  143  A    between atoms: _352  and  _354
REMARK  144  A    between atoms: _354  and  _355
REMARK  145  A    between atoms: _354  and  _357
REMARK  146  A    between atoms: _357  and  _358
REMARK  147  A    between atoms: _361  and  _363
REMARK  148  A    between atoms: _363  and  _364
REMARK  149  A    between atoms: _363  and  _366
REMARK  150  A    between atoms: _369  and  _371
REMARK  151  A    between atoms: _371  and  _372
REMARK  152  A    between atoms: _371  and  _374
REMARK  153  A    between atoms: _374  and  _375
REMARK  154  A    between atoms: _375  and  _376
REMARK  155  A    between atoms: _376  and  _377
REMARK  156  A    between atoms: _377  and  _378
REMARK  157  A    between atoms: _382  and  _384
REMARK  158  A    between atoms: _384  and  _385
REMARK  159  A    between atoms: _384  and  _387
REMARK  160  A    between atoms: _387  and  _388
REMARK  161  A    between atoms: _388  and  _389
REMARK  162  A    between atoms: _391  and  _393
REMARK  163  A    between atoms: _393  and  _394
REMARK  164  A    between atoms: _393  and  _396
REMARK  165  A    between atoms: _396  and  _397
REMARK  166  A    between atoms: _400  and  _402
REMARK  167  A    between atoms: _402  and  _403
REMARK  168  A    between atoms: _405  and  _407
REMARK  169  A    between atoms: _407  and  _408
REMARK  170  A    between atoms: _410  and  _412
REMARK  171  A    between atoms: _412  and  _413
REMARK  172  A    between atoms: _412  and  _415
REMARK  173  A    between atoms: _415  and  _416
REMARK  174  A    between atoms: _419  and  _421
REMARK  175  A    between atoms: _421  and  _422
REMARK  176  A    between atoms: _424  and  _426
REMARK  177  A    between atoms: _426  and  _427
REMARK  178  A    between atoms: _429  and  _431
REMARK  179  A    between atoms: _431  and  _432
REMARK  180  A    between atoms: _431  and  _434
REMARK  181  A    between atoms: _434  and  _435
REMARK  182  A    between atoms: _441  and  _443
REMARK  183  A    between atoms: _443  and  _444
REMARK  184  A    between atoms: _443  and  _446
REMARK  185  A    between atoms: _446  and  _447
REMARK  186  A    between atoms: _450  and  _452
REMARK  187  A    between atoms: _452  and  _453
REMARK  188  A    between atoms: _452  and  _455
REMARK  189  A    between atoms: _458  and  _460
REMARK  190  A    between atoms: _460  and  _461
REMARK  191  A    between atoms: _460  and  _463
REMARK  192  A    between atoms: _463  and  _464
REMARK  193  A    between atoms: _468  and  _469
REMARK  194  A    between atoms: _474  and  _476
REMARK  195  A    between atoms: _476  and  _477
REMARK  196  A    between atoms: _476  and  _479
REMARK  197  A    between atoms: _479  and  _480
REMARK  198  A    between atoms: _484  and  _485
REMARK  199  A    between atoms: _490  and  _492
REMARK  200  A    between atoms: _492  and  _493
REMARK  201  A    between atoms: _492  and  _495
REMARK  202  A    between atoms: _498  and  _500
REMARK  203  A    between atoms: _500  and  _501
REMARK  204  A    between atoms: _500  and  _503
REMARK  205  A    between atoms: _503  and  _504
REMARK  206  A    between atoms: _509  and  _511
REMARK  207  A    between atoms: _511  and  _512
REMARK  208  A    between atoms: _511  and  _514
REMARK  209  A    between atoms: _514  and  _515
REMARK  210  A    between atoms: _518  and  _520
REMARK  211  A    between atoms: _520  and  _521
REMARK  212  A    between atoms: _520  and  _523
REMARK  213  A    between atoms: _523  and  _524
REMARK  214  A    between atoms: _527  and  _529
REMARK  215  A    between atoms: _529  and  _530
REMARK  216  A    between atoms: _532  and  _534
REMARK  217  A    between atoms: _534  and  _535
REMARK  218  A    between atoms: _534  and  _537
REMARK  219  A    between atoms: _537  and  _538
REMARK  220  A    between atoms: _538  and  _539
REMARK  221  A    between atoms: _539  and  _540
REMARK  222  A    between atoms: _549  and  _551
REMARK  223  A    between atoms: _551  and  _552
REMARK  224  A    between atoms: _551  and  _554
REMARK  225  A    between atoms: _554  and  _555
REMARK                            x       y       z     vdW  Elec       q    Type
REMARK                         _______ _______ _______ _____ _____    ______ ____
ROOT
ATOM      1  O   HOH     1       9.037  16.209  27.185  0.00  0.00    +0.000 OA
ENDROOT
TORSDOF 0
REMARK  Name = ../refined-set-2016/3bva/3bva_pocket.pdb
REMARK  225 active torsions:
REMARK  status: ('A' for Active; 'I' for Inactive)
REMARK    1  A    between atoms: _1  and  _3
REMARK    2  A    between atoms: _3  and  _4
REMARK    3  A    between atoms: _3  and  _6
REMARK    4  A    between atoms: _6  and  _7
REMARK    5  A    between atoms: _7  and  _8
REMARK    6  A    between atoms: _8  and  _9
REMARK    7  A    between atoms: _18  and  _20
REMARK    8  A    between atoms: _20  and  _21
REMARK    9  A    between atoms: _20  and  _23
REMARK   10  A    between atoms: _23  and  _24
REMARK   11  A    between atoms: _27  and  _29
REMARK   12  A    between atoms: _29  and  _30
REMARK   13  A    between atoms: _29  and  _32
REMARK   14  A    between atoms: _32  and  _33
REMARK   15  A    between atoms: _38  and  _40
REMARK   16  A    between atoms: _40  and  _41
REMARK   17  A    between atoms: _40  and  _43
REMARK   18  A    between atoms: _43  and  _44
REMARK   19  A    between atoms: _47  and  _49
REMARK   20  A    between atoms: _49  and  _50
REMARK   21  A    between atoms: _52  and  _54
REMARK   22  A    between atoms: _54  and  _55
REMARK   23  A    between atoms: _58  and  _60
REMARK   24  A    between atoms: _60  and  _61
REMARK   25  A    between atoms: _60  and  _63
REMARK   26  A    between atoms: _63  and  _64
REMARK   27  A    between atoms: _67  and  _69
REMARK   28  A    between atoms: _69  and  _70
REMARK   29  A    between atoms: _69  and  _72
REMARK   30  A    between atoms: _72  and  _73
REMARK   31  A    between atoms: _76  and  _78
REMARK   32  A    between atoms: _78  and  _79
REMARK   33  A    between atoms: _78  and  _81
REMARK   34  A    between atoms: _81  and  _82
REMARK   35  A    between atoms: _85  and  _87
REMARK   36  A    between atoms: _87  and  _88
REMARK   37  A    between atoms: _87  and  _90
REMARK   38  A    between atoms: _93  and  _95
REMARK   39  A    between atoms: _95  and  _96
REMARK   40  A    between atoms: _95  and  _98
REMARK   41  A    between atoms: _98  and  _99
REMARK   42  A    between atoms: _99  and  _100
REMARK   43  A    between atoms: _100  and  _101
REMARK   44  A    between atoms: _101  and  _102
REMARK   45  A    between atoms: _106  and  _108
REMARK   46  A    between atoms: _108  and  _109
REMARK   47  A    between atoms: _108  and  _111
REMARK   48  A    between atoms: _111  and  _112
REMARK   49  A    between atoms: _112  and  _113
REMARK   50  A    between atoms: _115  and  _117
REMARK   51  A    between atoms: _117  and  _118
REMARK   52  A    between atoms: _117  and  _120
REMARK   53  A    between atoms: _120  and  _121
REMARK   54  A    between atoms: _124  and  _126
REMARK   55  A    between atoms: _126  and  _127
REMARK   56  A    between atoms: _129  and  _131
REMARK   57  A    between atoms: _131  and  _132
REMARK   58  A    between atoms: _134  and  _136
REMARK   59  A    between atoms: _136  and  _137
REMARK   60  A    between atoms: _136  and  _139
REMARK   61  A    between atoms: _139  and  _140
REMARK   62  A    between atoms: _143  and  _145
REMARK   63  A    between atoms: _145  and  _146
REMARK   64  A    between atoms: _148  and  _150
REMARK   65  A    between atoms: _150  and  _151
REMARK   66  A    between atoms: _153  and  _155
REMARK   67  A    between atoms: _155  and  _156
REMARK   68  A    between atoms: _155  and  _158
REMARK   69  A    between atoms: _158  and  _159
REMARK   70  A    between atoms: _165  and  _167
REMARK   71  A    between atoms: _167  and  _168
REMARK   72  A    between atoms: _167  and  _170
REMARK   73  A    between atoms: _170  and  _171
REMARK   74  A    between atoms: _174  and  _176
REMARK   75  A    between atoms: _176  and  _177
REMARK   76  A    between atoms: _176  and  _179
REMARK   77  A    between atoms: _182  and  _184
REMARK   78  A    between atoms: _184  and  _185
REMARK   79  A    between atoms: _184  and  _187
REMARK   80  A    between atoms: _187  and  _188
REMARK   81  A    between atoms: _191  and  _193
REMARK   82  A    between atoms: _193  and  _194
REMARK   83  A    between atoms: _193  and  _196
REMARK   84  A    between atoms: _196  and  _197
REMARK   85  A    between atoms: _201  and  _202
REMARK   86  A    between atoms: _207  and  _209
REMARK   87  A    between atoms: _209  and  _210
REMARK   88  A    between atoms: _209  and  _212
REMARK   89  A    between atoms: _215  and  _217
REMARK   90  A    between atoms: _217  and  _218
REMARK   91  A    between atoms: _217  and  _220
REMARK   92  A    between atoms: _220  and  _221
REMARK   93  A    between atoms: _226  and  _228
REMARK   94  A    between atoms: _228  and  _229
REMARK   95  A    between atoms: _228  and  _231
REMARK   96  A    between atoms: _231  and  _232
REMARK   97  A    between atoms: _235  and  _237
REMARK   98  A    between atoms: _237  and  _238
REMARK   99  A    between atoms: _240  and  _242
REMARK  100  A    between atoms: _242  and  _243
REMARK  101  A    between atoms: _242  and  _245
REMARK  102  A    between atoms: _245  and  _246
REMARK  103  A    between atoms: _246  and  _247
REMARK  104  A    between atoms: _247  and  _248
REMARK  105  A    between atoms: _257  and  _259
REMARK  106  A    between atoms: _259  and  _260
REMARK  107  A    between atoms: _259  and  _262
REMARK  108  A    between atoms: _262  and  _263
REMARK  109  A    between atoms: _268  and  _270
REMARK  110  A    between atoms: _270  and  _271
REMARK  111  A    between atoms: _270  and  _273
REMARK  112  A    between atoms: _273  and  _274
REMARK  113  A    between atoms: _274  and  _275
REMARK  114  A    between atoms: _275  and  _276
REMARK  115  A    between atoms: _285  and  _287
REMARK  116  A    between atoms: _287  and  _288
REMARK  117  A    between atoms: _287  and  _290
REMARK  118  A    between atoms: _290  and  _291
REMARK  119  A    between atoms: _294  and  _296
REMARK  120  A    between atoms: _296  and  _297
REMARK  121  A    between atoms: _296  and  _299
REMARK  122  A    between atoms: _299  and  _300
REMARK  123  A    between atoms: _303  and  _305
REMARK  124  A    between atoms: _305  and  _306
REMARK  125  A    between atoms: _305  and  _308
REMARK  126  A    between atoms: _308  and  _309
REMARK  127  A    between atoms: _314  and  _316
REMARK  128  A    between atoms: _316  and  _317
REMARK  129  A    between atoms: _316  and  _319
REMARK  130  A    between atoms: _319  and  _320
REMARK  131  A    between atoms: _323  and  _325
REMARK  132  A    between atoms: _325  and  _326
REMARK  133  A    between atoms: _328  and  _330
REMARK  134  A    between atoms: _330  and  _331
REMARK  135  A    between atoms: _334  and  _336
REMARK  136  A    between atoms: _336  and  _337
REMARK  137  A    between atoms: _336  and  _339
REMARK  138  A    between atoms: _339  and  _340
REMARK  139  A    between atoms: _343  and  _345
REMARK  140  A    between atoms: _345  and  _346
REMARK  141  A    between atoms: _345  and  _348
REMARK  142  A    between atoms: _348  and  _349
REMARK  143  A    between atoms: _352  and  _354
REMARK  144  A    between atoms: _354  and  _355
REMARK  145  A    between atoms: _354  and  _357
REMARK  146  A    between atoms: _357  and  _358
REMARK  147  A    between atoms: _361  and  _363
REMARK  148  A    between atoms: _363  and  _364
REMARK  149  A    between atoms: _363  and  _366
REMARK  150  A    between atoms: _369  and  _371
REMARK  151  A    between atoms: _371  and  _372
REMARK  152  A    between atoms: _371  and  _374
REMARK  153  A    between atoms: _374  and  _375
REMARK  154  A    between atoms: _375  and  _376
REMARK  155  A    between atoms: _376  and  _377
REMARK  156  A    between atoms: _377  and  _378
REMARK  157  A    between atoms: _382  and  _384
REMARK  158  A    between atoms: _384  and  _385
REMARK  159  A    between atoms: _384  and  _387
REMARK  160  A    between atoms: _387  and  _388
REMARK  161  A    between atoms: _388  and  _389
REMARK  162  A    between atoms: _391  and  _393
REMARK  163  A    between atoms: _393  and  _394
REMARK  164  A    between atoms: _393  and  _396
REMARK  165  A    between atoms: _396  and  _397
REMARK  166  A    between atoms: _400  and  _402
REMARK  167  A    between atoms: _402  and  _403
REMARK  168  A    between atoms: _405  and  _407
REMARK  169  A    between atoms: _407  and  _408
REMARK  170  A    between atoms: _410  and  _412
REMARK  171  A    between atoms: _412  and  _413
REMARK  172  A    between atoms: _412  and  _415
REMARK  173  A    between atoms: _415  and  _416
REMARK  174  A    between atoms: _419  and  _421
REMARK  175  A    between atoms: _421  and  _422
REMARK  176  A    between atoms: _424  and  _426
REMARK  177  A    between atoms: _426  and  _427
REMARK  178  A    between atoms: _429  and  _431
REMARK  179  A    between atoms: _431  and  _432
REMARK  180  A    between atoms: _431  and  _434
REMARK  181  A    between atoms: _434  and  _435
REMARK  182  A    between atoms: _441  and  _443
REMARK  183  A    between atoms: _443  and  _444
REMARK  184  A    between atoms: _443  and  _446
REMARK  185  A    between atoms: _446  and  _447
REMARK  186  A    between atoms: _450  and  _452
REMARK  187  A    between atoms: _452  and  _453
REMARK  188  A    between atoms: _452  and  _455
REMARK  189  A    between atoms: _458  and  _460
REMARK  190  A    between atoms: _460  and  _461
REMARK  191  A    between atoms: _460  and  _463
REMARK  192  A    between atoms: _463  and  _464
REMARK  193  A    between atoms: _468  and  _469
REMARK  194  A    between atoms: _474  and  _476
REMARK  195  A    between atoms: _476  and  _477
REMARK  196  A    between atoms: _476  and  _479
REMARK  197  A    between atoms: _479  and  _480
REMARK  198  A    between atoms: _484  and  _485
REMARK  199  A    between atoms: _490  and  _492
REMARK  200  A    between atoms: _492  and  _493
REMARK  201  A    between atoms: _492  and  _495
REMARK  202  A    between atoms: _498  and  _500
REMARK  203  A    between atoms: _500  and  _501
REMARK  204  A    between atoms: _500  and  _503
REMARK  205  A    between atoms: _503  and  _504
REMARK  206  A    between atoms: _509  and  _511
REMARK  207  A    between atoms: _511  and  _512
REMARK  208  A    between atoms: _511  and  _514
REMARK  209  A    between atoms: _514  and  _515
REMARK  210  A    between atoms: _518  and  _520
REMARK  211  A    between atoms: _520  and  _521
REMARK  212  A    between atoms: _520  and  _523
REMARK  213  A    between atoms: _523  and  _524
REMARK  214  A    between atoms: _527  and  _529
REMARK  215  A    between atoms: _529  and  _530
REMARK  216  A    between atoms: _532  and  _534
REMARK  217  A    between atoms: _534  and  _535
REMARK  218  A    between atoms: _534  and  _537
REMARK  219  A    between atoms: _537  and  _538
REMARK  220  A    between atoms: _538  and  _539
REMARK  221  A    between atoms: _539  and  _540
REMARK  222  A    between atoms: _549  and  _551
REMARK  223  A    between atoms: _551  and  _552
REMARK  224  A    between atoms: _551  and  _554
REMARK  225  A    between atoms: _554  and  _555
REMARK                            x       y       z     vdW  Elec       q    Type
REMARK                         _______ _______ _______ _____ _____    ______ ____
ROOT
ATOM      1  O   HOH     1       8.989  21.582  14.052  0.00  0.00    +0.000 OA
ENDROOT
TORSDOF 0
REMARK  Name = ../refined-set-2016/3bva/3bva_pocket.pdb
REMARK  225 active torsions:
REMARK  status: ('A' for Active; 'I' for Inactive)
REMARK    1  A    between atoms: _1  and  _3
REMARK    2  A    between atoms: _3  and  _4
REMARK    3  A    between atoms: _3  and  _6
REMARK    4  A    between atoms: _6  and  _7
REMARK    5  A    between atoms: _7  and  _8
REMARK    6  A    between atoms: _8  and  _9
REMARK    7  A    between atoms: _18  and  _20
REMARK    8  A    between atoms: _20  and  _21
REMARK    9  A    between atoms: _20  and  _23
REMARK   10  A    between atoms: _23  and  _24
REMARK   11  A    between atoms: _27  and  _29
REMARK   12  A    between atoms: _29  and  _30
REMARK   13  A    between atoms: _29  and  _32
REMARK   14  A    between atoms: _32  and  _33
REMARK   15  A    between atoms: _38  and  _40
REMARK   16  A    between atoms: _40  and  _41
REMARK   17  A    between atoms: _40  and  _43
REMARK   18  A    between atoms: _43  and  _44
REMARK   19  A    between atoms: _47  and  _49
REMARK   20  A    between atoms: _49  and  _50
REMARK   21  A    between atoms: _52  and  _54
REMARK   22  A    between atoms: _54  and  _55
REMARK   23  A    between atoms: _58  and  _60
REMARK   24  A    between atoms: _60  and  _61
REMARK   25  A    between atoms: _60  and  _63
REMARK   26  A    between atoms: _63  and  _64
REMARK   27  A    between atoms: _67  and  _69
REMARK   28  A    between atoms: _69  and  _70
REMARK   29  A    between atoms: _69  and  _72
REMARK   30  A    between atoms: _72  and  _73
REMARK   31  A    between atoms: _76  and  _78
REMARK   32  A    between atoms: _78  and  _79
REMARK   33  A    between atoms: _78  and  _81
REMARK   34  A    between atoms: _81  and  _82
REMARK   35  A    between atoms: _85  and  _87
REMARK   36  A    between atoms: _87  and  _88
REMARK   37  A    between atoms: _87  and  _90
REMARK   38  A    between atoms: _93  and  _95
REMARK   39  A    between atoms: _95  and  _96
REMARK   40  A    between atoms: _95  and  _98
REMARK   41  A    between atoms: _98  and  _99
REMARK   42  A    between atoms: _99  and  _100
REMARK   43  A    between atoms: _100  and  _101
REMARK   44  A    between atoms: _101  and  _102
REMARK   45  A    between atoms: _106  and  _108
REMARK   46  A    between atoms: _108  and  _109
REMARK   47  A    between atoms: _108  and  _111
REMARK   48  A    between atoms: _111  and  _112
REMARK   49  A    between atoms: _112  and  _113
REMARK   50  A    between atoms: _115  and  _117
REMARK   51  A    between atoms: _117  and  _118
REMARK   52  A    between atoms: _117  and  _120
REMARK   53  A    between atoms: _120  and  _121
REMARK   54  A    between atoms: _124  and  _126
REMARK   55  A    between atoms: _126  and  _127
REMARK   56  A    between atoms: _129  and  _131
REMARK   57  A    between atoms: _131  and  _132
REMARK   58  A    between atoms: _134  and  _136
REMARK   59  A    between atoms: _136  and  _137
REMARK   60  A    between atoms: _136  and  _139
REMARK   61  A    between atoms: _139  and  _140
REMARK   62  A    between atoms: _143  and  _145
REMARK   63  A    between atoms: _145  and  _146
REMARK   64  A    between atoms: _148  and  _150
REMARK   65  A    between atoms: _150  and  _151
REMARK   66  A    between atoms: _153  and  _155
REMARK   67  A    between atoms: _155  and  _156
REMARK   68  A    between atoms: _155  and  _158
REMARK   69  A    between atoms: _158  and  _159
REMARK   70  A    between atoms: _165  and  _167
REMARK   71  A    between atoms: _167  and  _168
REMARK   72  A    between atoms: _167  and  _170
REMARK   73  A    between atoms: _170  and  _171
REMARK   74  A    between atoms: _174  and  _176
REMARK   75  A    between atoms: _176  and  _177
REMARK   76  A    between atoms: _176  and  _179
REMARK   77  A    between atoms: _182  and  _184
REMARK   78  A    between atoms: _184  and  _185
REMARK   79  A    between atoms: _184  and  _187
REMARK   80  A    between atoms: _187  and  _188
REMARK   81  A    between atoms: _191  and  _193
REMARK   82  A    between atoms: _193  and  _194
REMARK   83  A    between atoms: _193  and  _196
REMARK   84  A    between atoms: _196  and  _197
REMARK   85  A    between atoms: _201  and  _202
REMARK   86  A    between atoms: _207  and  _209
REMARK   87  A    between atoms: _209  and  _210
REMARK   88  A    between atoms: _209  and  _212
REMARK   89  A    between atoms: _215  and  _217
REMARK   90  A    between atoms: _217  and  _218
REMARK   91  A    between atoms: _217  and  _220
REMARK   92  A    between atoms: _220  and  _221
REMARK   93  A    between atoms: _226  and  _228
REMARK   94  A    between atoms: _228  and  _229
REMARK   95  A    between atoms: _228  and  _231
REMARK   96  A    between atoms: _231  and  _232
REMARK   97  A    between atoms: _235  and  _237
REMARK   98  A    between atoms: _237  and  _238
REMARK   99  A    between atoms: _240  and  _242
REMARK  100  A    between atoms: _242  and  _243
REMARK  101  A    between atoms: _242  and  _245
REMARK  102  A    between atoms: _245  and  _246
REMARK  103  A    between atoms: _246  and  _247
REMARK  104  A    between atoms: _247  and  _248
REMARK  105  A    between atoms: _257  and  _259
REMARK  106  A    between atoms: _259  and  _260
REMARK  107  A    between atoms: _259  and  _262
REMARK  108  A    between atoms: _262  and  _263
REMARK  109  A    between atoms: _268  and  _270
REMARK  110  A    between atoms: _270  and  _271
REMARK  111  A    between atoms: _270  and  _273
REMARK  112  A    between atoms: _273  and  _274
REMARK  113  A    between atoms: _274  and  _275
REMARK  114  A    between atoms: _275  and  _276
REMARK  115  A    between atoms: _285  and  _287
REMARK  116  A    between atoms: _287  and  _288
REMARK  117  A    between atoms: _287  and  _290
REMARK  118  A    between atoms: _290  and  _291
REMARK  119  A    between atoms: _294  and  _296
REMARK  120  A    between atoms: _296  and  _297
REMARK  121  A    between atoms: _296  and  _299
REMARK  122  A    between atoms: _299  and  _300
REMARK  123  A    between atoms: _303  and  _305
REMARK  124  A    between atoms: _305  and  _306
REMARK  125  A    between atoms: _305  and  _308
REMARK  126  A    between atoms: _308  and  _309
REMARK  127  A    between atoms: _314  and  _316
REMARK  128  A    between atoms: _316  and  _317
REMARK  129  A    between atoms: _316  and  _319
REMARK  130  A    between atoms: _319  and  _320
REMARK  131  A    between atoms: _323  and  _325
REMARK  132  A    between atoms: _325  and  _326
REMARK  133  A    between atoms: _328  and  _330
REMARK  134  A    between atoms: _330  and  _331
REMARK  135  A    between atoms: _334  and  _336
REMARK  136  A    between atoms: _336  and  _337
REMARK  137  A    between atoms: _336  and  _339
REMARK  138  A    between atoms: _339  and  _340
REMARK  139  A    between atoms: _343  and  _345
REMARK  140  A    between atoms: _345  and  _346
REMARK  141  A    between atoms: _345  and  _348
REMARK  142  A    between atoms: _348  and  _349
REMARK  143  A    between atoms: _352  and  _354
REMARK  144  A    between atoms: _354  and  _355
REMARK  145  A    between atoms: _354  and  _357
REMARK  146  A    between atoms: _357  and  _358
REMARK  147  A    between atoms: _361  and  _363
REMARK  148  A    between atoms: _363  and  _364
REMARK  149  A    between atoms: _363  and  _366
REMARK  150  A    between atoms: _369  and  _371
REMARK  151  A    between atoms: _371  and  _372
REMARK  152  A    between atoms: _371  and  _374
REMARK  153  A    between atoms: _374  and  _375
REMARK  154  A    between atoms: _375  and  _376
REMARK  155  A    between atoms: _376  and  _377
REMARK  156  A    between atoms: _377  and  _378
REMARK  157  A    between atoms: _382  and  _384
REMARK  158  A    between atoms: _384  and  _385
REMARK  159  A    between atoms: _384  and  _387
REMARK  160  A    between atoms: _387  and  _388
REMARK  161  A    between atoms: _388  and  _389
REMARK  162  A    between atoms: _391  and  _393
REMARK  163  A    between atoms: _393  and  _394
REMARK  164  A    between atoms: _393  and  _396
REMARK  165  A    between atoms: _396  and  _397
REMARK  166  A    between atoms: _400  and  _402
REMARK  167  A    between atoms: _402  and  _403
REMARK  168  A    between atoms: _405  and  _407
REMARK  169  A    between atoms: _407  and  _408
REMARK  170  A    between atoms: _410  and  _412
REMARK  171  A    between atoms: _412  and  _413
REMARK  172  A    between atoms: _412  and  _415
REMARK  173  A    between atoms: _415  and  _416
REMARK  174  A    between atoms: _419  and  _421
REMARK  175  A    between atoms: _421  and  _422
REMARK  176  A    between atoms: _424  and  _426
REMARK  177  A    between atoms: _426  and  _427
REMARK  178  A    between atoms: _429  and  _431
REMARK  179  A    between atoms: _431  and  _432
REMARK  180  A    between atoms: _431  and  _434
REMARK  181  A    between atoms: _434  and  _435
REMARK  182  A    between atoms: _441  and  _443
REMARK  183  A    between atoms: _443  and  _444
REMARK  184  A    between atoms: _443  and  _446
REMARK  185  A    between atoms: _446  and  _447
REMARK  186  A    between atoms: _450  and  _452
REMARK  187  A    between atoms: _452  and  _453
REMARK  188  A    between atoms: _452  and  _455
REMARK  189  A    between atoms: _458  and  _460
REMARK  190  A    between atoms: _460  and  _461
REMARK  191  A    between atoms: _460  and  _463
REMARK  192  A    between atoms: _463  and  _464
REMARK  193  A    between atoms: _468  and  _469
REMARK  194  A    between atoms: _474  and  _476
REMARK  195  A    between atoms: _476  and  _477
REMARK  196  A    between atoms: _476  and  _479
REMARK  197  A    between atoms: _479  and  _480
REMARK  198  A    between atoms: _484  and  _485
REMARK  199  A    between atoms: _490  and  _492
REMARK  200  A    between atoms: _492  and  _493
REMARK  201  A    between atoms: _492  and  _495
REMARK  202  A    between atoms: _498  and  _500
REMARK  203  A    between atoms: _500  and  _501
REMARK  204  A    between atoms: _500  and  _503
REMARK  205  A    between atoms: _503  and  _504
REMARK  206  A    between atoms: _509  and  _511
REMARK  207  A    between atoms: _511  and  _512
REMARK  208  A    between atoms: _511  and  _514
REMARK  209  A    between atoms: _514  and  _515
REMARK  210  A    between atoms: _518  and  _520
REMARK  211  A    between atoms: _520  and  _521
REMARK  212  A    between atoms: _520  and  _523
REMARK  213  A    between atoms: _523  and  _524
REMARK  214  A    between atoms: _527  and  _529
REMARK  215  A    between atoms: _529  and  _530
REMARK  216  A    between atoms: _532  and  _534
REMARK  217  A    between atoms: _534  and  _535
REMARK  218  A    between atoms: _534  and  _537
REMARK  219  A    between atoms: _537  and  _538
REMARK  220  A    between atoms: _538  and  _539
REMARK  221  A    between atoms: _539  and  _540
REMARK  222  A    between atoms: _549  and  _551
REMARK  223  A    between atoms: _551  and  _552
REMARK  224  A    between atoms: _551  and  _554
REMARK  225  A    between atoms: _554  and  _555
REMARK                            x       y       z     vdW  Elec       q    Type
REMARK                         _______ _______ _______ _____ _____    ______ ____
ROOT
ATOM      1  O   HOH     1      25.908  25.186  16.307  0.00  0.00    +0.000 OA
ENDROOT
TORSDOF 0
REMARK  Name = ../refined-set-2016/3bva/3bva_pocket.pdb
REMARK  225 active torsions:
REMARK  status: ('A' for Active; 'I' for Inactive)
REMARK    1  A    between atoms: _1  and  _3
REMARK    2  A    between atoms: _3  and  _4
REMARK    3  A    between atoms: _3  and  _6
REMARK    4  A    between atoms: _6  and  _7
REMARK    5  A    between atoms: _7  and  _8
REMARK    6  A    between atoms: _8  and  _9
REMARK    7  A    between atoms: _18  and  _20
REMARK    8  A    between atoms: _20  and  _21
REMARK    9  A    between atoms: _20  and  _23
REMARK   10  A    between atoms: _23  and  _24
REMARK   11  A    between atoms: _27  and  _29
REMARK   12  A    between atoms: _29  and  _30
REMARK   13  A    between atoms: _29  and  _32
REMARK   14  A    between atoms: _32  and  _33
REMARK   15  A    between atoms: _38  and  _40
REMARK   16  A    between atoms: _40  and  _41
REMARK   17  A    between atoms: _40  and  _43
REMARK   18  A    between atoms: _43  and  _44
REMARK   19  A    between atoms: _47  and  _49
REMARK   20  A    between atoms: _49  and  _50
REMARK   21  A    between atoms: _52  and  _54
REMARK   22  A    between atoms: _54  and  _55
REMARK   23  A    between atoms: _58  and  _60
REMARK   24  A    between atoms: _60  and  _61
REMARK   25  A    between atoms: _60  and  _63
REMARK   26  A    between atoms: _63  and  _64
REMARK   27  A    between atoms: _67  and  _69
REMARK   28  A    between atoms: _69  and  _70
REMARK   29  A    between atoms: _69  and  _72
REMARK   30  A    between atoms: _72  and  _73
REMARK   31  A    between atoms: _76  and  _78
REMARK   32  A    between atoms: _78  and  _79
REMARK   33  A    between atoms: _78  and  _81
REMARK   34  A    between atoms: _81  and  _82
REMARK   35  A    between atoms: _85  and  _87
REMARK   36  A    between atoms: _87  and  _88
REMARK   37  A    between atoms: _87  and  _90
REMARK   38  A    between atoms: _93  and  _95
REMARK   39  A    between atoms: _95  and  _96
REMARK   40  A    between atoms: _95  and  _98
REMARK   41  A    between atoms: _98  and  _99
REMARK   42  A    between atoms: _99  and  _100
REMARK   43  A    between atoms: _100  and  _101
REMARK   44  A    between atoms: _101  and  _102
REMARK   45  A    between atoms: _106  and  _108
REMARK   46  A    between atoms: _108  and  _109
REMARK   47  A    between atoms: _108  and  _111
REMARK   48  A    between atoms: _111  and  _112
REMARK   49  A    between atoms: _112  and  _113
REMARK   50  A    between atoms: _115  and  _117
REMARK   51  A    between atoms: _117  and  _118
REMARK   52  A    between atoms: _117  and  _120
REMARK   53  A    between atoms: _120  and  _121
REMARK   54  A    between atoms: _124  and  _126
REMARK   55  A    between atoms: _126  and  _127
REMARK   56  A    between atoms: _129  and  _131
REMARK   57  A    between atoms: _131  and  _132
REMARK   58  A    between atoms: _134  and  _136
REMARK   59  A    between atoms: _136  and  _137
REMARK   60  A    between atoms: _136  and  _139
REMARK   61  A    between atoms: _139  and  _140
REMARK   62  A    between atoms: _143  and  _145
REMARK   63  A    between atoms: _145  and  _146
REMARK   64  A    between atoms: _148  and  _150
REMARK   65  A    between atoms: _150  and  _151
REMARK   66  A    between atoms: _153  and  _155
REMARK   67  A    between atoms: _155  and  _156
REMARK   68  A    between atoms: _155  and  _158
REMARK   69  A    between atoms: _158  and  _159
REMARK   70  A    between atoms: _165  and  _167
REMARK   71  A    between atoms: _167  and  _168
REMARK   72  A    between atoms: _167  and  _170
REMARK   73  A    between atoms: _170  and  _171
REMARK   74  A    between atoms: _174  and  _176
REMARK   75  A    between atoms: _176  and  _177
REMARK   76  A    between atoms: _176  and  _179
REMARK   77  A    between atoms: _182  and  _184
REMARK   78  A    between atoms: _184  and  _185
REMARK   79  A    between atoms: _184  and  _187
REMARK   80  A    between atoms: _187  and  _188
REMARK   81  A    between atoms: _191  and  _193
REMARK   82  A    between atoms: _193  and  _194
REMARK   83  A    between atoms: _193  and  _196
REMARK   84  A    between atoms: _196  and  _197
REMARK   85  A    between atoms: _201  and  _202
REMARK   86  A    between atoms: _207  and  _209
REMARK   87  A    between atoms: _209  and  _210
REMARK   88  A    between atoms: _209  and  _212
REMARK   89  A    between atoms: _215  and  _217
REMARK   90  A    between atoms: _217  and  _218
REMARK   91  A    between atoms: _217  and  _220
REMARK   92  A    between atoms: _220  and  _221
REMARK   93  A    between atoms: _226  and  _228
REMARK   94  A    between atoms: _228  and  _229
REMARK   95  A    between atoms: _228  and  _231
REMARK   96  A    between atoms: _231  and  _232
REMARK   97  A    between atoms: _235  and  _237
REMARK   98  A    between atoms: _237  and  _238
REMARK   99  A    between atoms: _240  and  _242
REMARK  100  A    between atoms: _242  and  _243
REMARK  101  A    between atoms: _242  and  _245
REMARK  102  A    between atoms: _245  and  _246
REMARK  103  A    between atoms: _246  and  _247
REMARK  104  A    between atoms: _247  and  _248
REMARK  105  A    between atoms: _257  and  _259
REMARK  106  A    between atoms: _259  and  _260
REMARK  107  A    between atoms: _259  and  _262
REMARK  108  A    between atoms: _262  and  _263
REMARK  109  A    between atoms: _268  and  _270
REMARK  110  A    between atoms: _270  and  _271
REMARK  111  A    between atoms: _270  and  _273
REMARK  112  A    between atoms: _273  and  _274
REMARK  113  A    between atoms: _274  and  _275
REMARK  114  A    between atoms: _275  and  _276
REMARK  115  A    between atoms: _285  and  _287
REMARK  116  A    between atoms: _287  and  _288
REMARK  117  A    between atoms: _287  and  _290
REMARK  118  A    between atoms: _290  and  _291
REMARK  119  A    between atoms: _294  and  _296
REMARK  120  A    between atoms: _296  and  _297
REMARK  121  A    between atoms: _296  and  _299
REMARK  122  A    between atoms: _299  and  _300
REMARK  123  A    between atoms: _303  and  _305
REMARK  124  A    between atoms: _305  and  _306
REMARK  125  A    between atoms: _305  and  _308
REMARK  126  A    between atoms: _308  and  _309
REMARK  127  A    between atoms: _314  and  _316
REMARK  128  A    between atoms: _316  and  _317
REMARK  129  A    between atoms: _316  and  _319
REMARK  130  A    between atoms: _319  and  _320
REMARK  131  A    between atoms: _323  and  _325
REMARK  132  A    between atoms: _325  and  _326
REMARK  133  A    between atoms: _328  and  _330
REMARK  134  A    between atoms: _330  and  _331
REMARK  135  A    between atoms: _334  and  _336
REMARK  136  A    between atoms: _336  and  _337
REMARK  137  A    between atoms: _336  and  _339
REMARK  138  A    between atoms: _339  and  _340
REMARK  139  A    between atoms: _343  and  _345
REMARK  140  A    between atoms: _345  and  _346
REMARK  141  A    between atoms: _345  and  _348
REMARK  142  A    between atoms: _348  and  _349
REMARK  143  A    between atoms: _352  and  _354
REMARK  144  A    between atoms: _354  and  _355
REMARK  145  A    between atoms: _354  and  _357
REMARK  146  A    between atoms: _357  and  _358
REMARK  147  A    between atoms: _361  and  _363
REMARK  148  A    between atoms: _363  and  _364
REMARK  149  A    between atoms: _363  and  _366
REMARK  150  A    between atoms: _369  and  _371
REMARK  151  A    between atoms: _371  and  _372
REMARK  152  A    between atoms: _371  and  _374
REMARK  153  A    between atoms: _374  and  _375
REMARK  154  A    between atoms: _375  and  _376
REMARK  155  A    between atoms: _376  and  _377
REMARK  156  A    between atoms: _377  and  _378
REMARK  157  A    between atoms: _382  and  _384
REMARK  158  A    between atoms: _384  and  _385
REMARK  159  A    between atoms: _384  and  _387
REMARK  160  A    between atoms: _387  and  _388
REMARK  161  A    between atoms: _388  and  _389
REMARK  162  A    between atoms: _391  and  _393
REMARK  163  A    between atoms: _393  and  _394
REMARK  164  A    between atoms: _393  and  _396
REMARK  165  A    between atoms: _396  and  _397
REMARK  166  A    between atoms: _400  and  _402
REMARK  167  A    between atoms: _402  and  _403
REMARK  168  A    between atoms: _405  and  _407
REMARK  169  A    between atoms: _407  and  _408
REMARK  170  A    between atoms: _410  and  _412
REMARK  171  A    between atoms: _412  and  _413
REMARK  172  A    between atoms: _412  and  _415
REMARK  173  A    between atoms: _415  and  _416
REMARK  174  A    between atoms: _419  and  _421
REMARK  175  A    between atoms: _421  and  _422
REMARK  176  A    between atoms: _424  and  _426
REMARK  177  A    between atoms: _426  and  _427
REMARK  178  A    between atoms: _429  and  _431
REMARK  179  A    between atoms: _431  and  _432
REMARK  180  A    between atoms: _431  and  _434
REMARK  181  A    between atoms: _434  and  _435
REMARK  182  A    between atoms: _441  and  _443
REMARK  183  A    between atoms: _443  and  _444
REMARK  184  A    between atoms: _443  and  _446
REMARK  185  A    between atoms: _446  and  _447
REMARK  186  A    between atoms: _450  and  _452
REMARK  187  A    between atoms: _452  and  _453
REMARK  188  A    between atoms: _452  and  _455
REMARK  189  A    between atoms: _458  and  _460
REMARK  190  A    between atoms: _460  and  _461
REMARK  191  A    between atoms: _460  and  _463
REMARK  192  A    between atoms: _463  and  _464
REMARK  193  A    between atoms: _468  and  _469
REMARK  194  A    between atoms: _474  and  _476
REMARK  195  A    between atoms: _476  and  _477
REMARK  196  A    between atoms: _476  and  _479
REMARK  197  A    between atoms: _479  and  _480
REMARK  198  A    between atoms: _484  and  _485
REMARK  199  A    between atoms: _490  and  _492
REMARK  200  A    between atoms: _492  and  _493
REMARK  201  A    between atoms: _492  and  _495
REMARK  202  A    between atoms: _498  and  _500
REMARK  203  A    between atoms: _500  and  _501
REMARK  204  A    between atoms: _500  and  _503
REMARK  205  A    between atoms: _503  and  _504
REMARK  206  A    between atoms: _509  and  _511
REMARK  207  A    between atoms: _511  and  _512
REMARK  208  A    between atoms: _511  and  _514
REMARK  209  A    between atoms: _514  and  _515
REMARK  210  A    between atoms: _518  and  _520
REMARK  211  A    between atoms: _520  and  _521
REMARK  212  A    between atoms: _520  and  _523
REMARK  213  A    between atoms: _523  and  _524
REMARK  214  A    between atoms: _527  and  _529
REMARK  215  A    between atoms: _529  and  _530
REMARK  216  A    between atoms: _532  and  _534
REMARK  217  A    between atoms: _534  and  _535
REMARK  218  A    between atoms: _534  and  _537
REMARK  219  A    between atoms: _537  and  _538
REMARK  220  A    between atoms: _538  and  _539
REMARK  221  A    between atoms: _539  and  _540
REMARK  222  A    between atoms: _549  and  _551
REMARK  223  A    between atoms: _551  and  _552
REMARK  224  A    between atoms: _551  and  _554
REMARK  225  A    between atoms: _554  and  _555
REMARK                            x       y       z     vdW  Elec       q    Type
REMARK                         _______ _______ _______ _____ _____    ______ ____
ROOT
ATOM      1  O   HOH     1      24.918  29.132  15.296  0.00  0.00    +0.000 OA
ENDROOT
TORSDOF 0
REMARK  Name = ../refined-set-2016/3bva/3bva_pocket.pdb
REMARK  225 active torsions:
REMARK  status: ('A' for Active; 'I' for Inactive)
REMARK    1  A    between atoms: _1  and  _3
REMARK    2  A    between atoms: _3  and  _4
REMARK    3  A    between atoms: _3  and  _6
REMARK    4  A    between atoms: _6  and  _7
REMARK    5  A    between atoms: _7  and  _8
REMARK    6  A    between atoms: _8  and  _9
REMARK    7  A    between atoms: _18  and  _20
REMARK    8  A    between atoms: _20  and  _21
REMARK    9  A    between atoms: _20  and  _23
REMARK   10  A    between atoms: _23  and  _24
REMARK   11  A    between atoms: _27  and  _29
REMARK   12  A    between atoms: _29  and  _30
REMARK   13  A    between atoms: _29  and  _32
REMARK   14  A    between atoms: _32  and  _33
REMARK   15  A    between atoms: _38  and  _40
REMARK   16  A    between atoms: _40  and  _41
REMARK   17  A    between atoms: _40  and  _43
REMARK   18  A    between atoms: _43  and  _44
REMARK   19  A    between atoms: _47  and  _49
REMARK   20  A    between atoms: _49  and  _50
REMARK   21  A    between atoms: _52  and  _54
REMARK   22  A    between atoms: _54  and  _55
REMARK   23  A    between atoms: _58  and  _60
REMARK   24  A    between atoms: _60  and  _61
REMARK   25  A    between atoms: _60  and  _63
REMARK   26  A    between atoms: _63  and  _64
REMARK   27  A    between atoms: _67  and  _69
REMARK   28  A    between atoms: _69  and  _70
REMARK   29  A    between atoms: _69  and  _72
REMARK   30  A    between atoms: _72  and  _73
REMARK   31  A    between atoms: _76  and  _78
REMARK   32  A    between atoms: _78  and  _79
REMARK   33  A    between atoms: _78  and  _81
REMARK   34  A    between atoms: _81  and  _82
REMARK   35  A    between atoms: _85  and  _87
REMARK   36  A    between atoms: _87  and  _88
REMARK   37  A    between atoms: _87  and  _90
REMARK   38  A    between atoms: _93  and  _95
REMARK   39  A    between atoms: _95  and  _96
REMARK   40  A    between atoms: _95  and  _98
REMARK   41  A    between atoms: _98  and  _99
REMARK   42  A    between atoms: _99  and  _100
REMARK   43  A    between atoms: _100  and  _101
REMARK   44  A    between atoms: _101  and  _102
REMARK   45  A    between atoms: _106  and  _108
REMARK   46  A    between atoms: _108  and  _109
REMARK   47  A    between atoms: _108  and  _111
REMARK   48  A    between atoms: _111  and  _112
REMARK   49  A    between atoms: _112  and  _113
REMARK   50  A    between atoms: _115  and  _117
REMARK   51  A    between atoms: _117  and  _118
REMARK   52  A    between atoms: _117  and  _120
REMARK   53  A    between atoms: _120  and  _121
REMARK   54  A    between atoms: _124  and  _126
REMARK   55  A    between atoms: _126  and  _127
REMARK   56  A    between atoms: _129  and  _131
REMARK   57  A    between atoms: _131  and  _132
REMARK   58  A    between atoms: _134  and  _136
REMARK   59  A    between atoms: _136  and  _137
REMARK   60  A    between atoms: _136  and  _139
REMARK   61  A    between atoms: _139  and  _140
REMARK   62  A    between atoms: _143  and  _145
REMARK   63  A    between atoms: _145  and  _146
REMARK   64  A    between atoms: _148  and  _150
REMARK   65  A    between atoms: _150  and  _151
REMARK   66  A    between atoms: _153  and  _155
REMARK   67  A    between atoms: _155  and  _156
REMARK   68  A    between atoms: _155  and  _158
REMARK   69  A    between atoms: _158  and  _159
REMARK   70  A    between atoms: _165  and  _167
REMARK   71  A    between atoms: _167  and  _168
REMARK   72  A    between atoms: _167  and  _170
REMARK   73  A    between atoms: _170  and  _171
REMARK   74  A    between atoms: _174  and  _176
REMARK   75  A    between atoms: _176  and  _177
REMARK   76  A    between atoms: _176  and  _179
REMARK   77  A    between atoms: _182  and  _184
REMARK   78  A    between atoms: _184  and  _185
REMARK   79  A    between atoms: _184  and  _187
REMARK   80  A    between atoms: _187  and  _188
REMARK   81  A    between atoms: _191  and  _193
REMARK   82  A    between atoms: _193  and  _194
REMARK   83  A    between atoms: _193  and  _196
REMARK   84  A    between atoms: _196  and  _197
REMARK   85  A    between atoms: _201  and  _202
REMARK   86  A    between atoms: _207  and  _209
REMARK   87  A    between atoms: _209  and  _210
REMARK   88  A    between atoms: _209  and  _212
REMARK   89  A    between atoms: _215  and  _217
REMARK   90  A    between atoms: _217  and  _218
REMARK   91  A    between atoms: _217  and  _220
REMARK   92  A    between atoms: _220  and  _221
REMARK   93  A    between atoms: _226  and  _228
REMARK   94  A    between atoms: _228  and  _229
REMARK   95  A    between atoms: _228  and  _231
REMARK   96  A    between atoms: _231  and  _232
REMARK   97  A    between atoms: _235  and  _237
REMARK   98  A    between atoms: _237  and  _238
REMARK   99  A    between atoms: _240  and  _242
REMARK  100  A    between atoms: _242  and  _243
REMARK  101  A    between atoms: _242  and  _245
REMARK  102  A    between atoms: _245  and  _246
REMARK  103  A    between atoms: _246  and  _247
REMARK  104  A    between atoms: _247  and  _248
REMARK  105  A    between atoms: _257  and  _259
REMARK  106  A    between atoms: _259  and  _260
REMARK  107  A    between atoms: _259  and  _262
REMARK  108  A    between atoms: _262  and  _263
REMARK  109  A    between atoms: _268  and  _270
REMARK  110  A    between atoms: _270  and  _271
REMARK  111  A    between atoms: _270  and  _273
REMARK  112  A    between atoms: _273  and  _274
REMARK  113  A    between atoms: _274  and  _275
REMARK  114  A    between atoms: _275  and  _276
REMARK  115  A    between atoms: _285  and  _287
REMARK  116  A    between atoms: _287  and  _288
REMARK  117  A    between atoms: _287  and  _290
REMARK  118  A    between atoms: _290  and  _291
REMARK  119  A    between atoms: _294  and  _296
REMARK  120  A    between atoms: _296  and  _297
REMARK  121  A    between atoms: _296  and  _299
REMARK  122  A    between atoms: _299  and  _300
REMARK  123  A    between atoms: _303  and  _305
REMARK  124  A    between atoms: _305  and  _306
REMARK  125  A    between atoms: _305  and  _308
REMARK  126  A    between atoms: _308  and  _309
REMARK  127  A    between atoms: _314  and  _316
REMARK  128  A    between atoms: _316  and  _317
REMARK  129  A    between atoms: _316  and  _319
REMARK  130  A    between atoms: _319  and  _320
REMARK  131  A    between atoms: _323  and  _325
REMARK  132  A    between atoms: _325  and  _326
REMARK  133  A    between atoms: _328  and  _330
REMARK  134  A    between atoms: _330  and  _331
REMARK  135  A    between atoms: _334  and  _336
REMARK  136  A    between atoms: _336  and  _337
REMARK  137  A    between atoms: _336  and  _339
REMARK  138  A    between atoms: _339  and  _340
REMARK  139  A    between atoms: _343  and  _345
REMARK  140  A    between atoms: _345  and  _346
REMARK  141  A    between atoms: _345  and  _348
REMARK  142  A    between atoms: _348  and  _349
REMARK  143  A    between atoms: _352  and  _354
REMARK  144  A    between atoms: _354  and  _355
REMARK  145  A    between atoms: _354  and  _357
REMARK  146  A    between atoms: _357  and  _358
REMARK  147  A    between atoms: _361  and  _363
REMARK  148  A    between atoms: _363  and  _364
REMARK  149  A    between atoms: _363  and  _366
REMARK  150  A    between atoms: _369  and  _371
REMARK  151  A    between atoms: _371  and  _372
REMARK  152  A    between atoms: _371  and  _374
REMARK  153  A    between atoms: _374  and  _375
REMARK  154  A    between atoms: _375  and  _376
REMARK  155  A    between atoms: _376  and  _377
REMARK  156  A    between atoms: _377  and  _378
REMARK  157  A    between atoms: _382  and  _384
REMARK  158  A    between atoms: _384  and  _385
REMARK  159  A    between atoms: _384  and  _387
REMARK  160  A    between atoms: _387  and  _388
REMARK  161  A    between atoms: _388  and  _389
REMARK  162  A    between atoms: _391  and  _393
REMARK  163  A    between atoms: _393  and  _394
REMARK  164  A    between atoms: _393  and  _396
REMARK  165  A    between atoms: _396  and  _397
REMARK  166  A    between atoms: _400  and  _402
REMARK  167  A    between atoms: _402  and  _403
REMARK  168  A    between atoms: _405  and  _407
REMARK  169  A    between atoms: _407  and  _408
REMARK  170  A    between atoms: _410  and  _412
REMARK  171  A    between atoms: _412  and  _413
REMARK  172  A    between atoms: _412  and  _415
REMARK  173  A    between atoms: _415  and  _416
REMARK  174  A    between atoms: _419  and  _421
REMARK  175  A    between atoms: _421  and  _422
REMARK  176  A    between atoms: _424  and  _426
REMARK  177  A    between atoms: _426  and  _427
REMARK  178  A    between atoms: _429  and  _431
REMARK  179  A    between atoms: _431  and  _432
REMARK  180  A    between atoms: _431  and  _434
REMARK  181  A    between atoms: _434  and  _435
REMARK  182  A    between atoms: _441  and  _443
REMARK  183  A    between atoms: _443  and  _444
REMARK  184  A    between atoms: _443  and  _446
REMARK  185  A    between atoms: _446  and  _447
REMARK  186  A    between atoms: _450  and  _452
REMARK  187  A    between atoms: _452  and  _453
REMARK  188  A    between atoms: _452  and  _455
REMARK  189  A    between atoms: _458  and  _460
REMARK  190  A    between atoms: _460  and  _461
REMARK  191  A    between atoms: _460  and  _463
REMARK  192  A    between atoms: _463  and  _464
REMARK  193  A    between atoms: _468  and  _469
REMARK  194  A    between atoms: _474  and  _476
REMARK  195  A    between atoms: _476  and  _477
REMARK  196  A    between atoms: _476  and  _479
REMARK  197  A    between atoms: _479  and  _480
REMARK  198  A    between atoms: _484  and  _485
REMARK  199  A    between atoms: _490  and  _492
REMARK  200  A    between atoms: _492  and  _493
REMARK  201  A    between atoms: _492  and  _495
REMARK  202  A    between atoms: _498  and  _500
REMARK  203  A    between atoms: _500  and  _501
REMARK  204  A    between atoms: _500  and  _503
REMARK  205  A    between atoms: _503  and  _504
REMARK  206  A    between atoms: _509  and  _511
REMARK  207  A    between atoms: _511  and  _512
REMARK  208  A    between atoms: _511  and  _514
REMARK  209  A    between atoms: _514  and  _515
REMARK  210  A    between atoms: _518  and  _520
REMARK  211  A    between atoms: _520  and  _521
REMARK  212  A    between atoms: _520  and  _523
REMARK  213  A    between atoms: _523  and  _524
REMARK  214  A    between atoms: _527  and  _529
REMARK  215  A    between atoms: _529  and  _530
REMARK  216  A    between atoms: _532  and  _534
REMARK  217  A    between atoms: _534  and  _535
REMARK  218  A    between atoms: _534  and  _537
REMARK  219  A    between atoms: _537  and  _538
REMARK  220  A    between atoms: _538  and  _539
REMARK  221  A    between atoms: _539  and  _540
REMARK  222  A    between atoms: _549  and  _551
REMARK  223  A    between atoms: _551  and  _552
REMARK  224  A    between atoms: _551  and  _554
REMARK  225  A    between atoms: _554  and  _555
REMARK                            x       y       z     vdW  Elec       q    Type
REMARK                         _______ _______ _______ _____ _____    ______ ____
ROOT
ATOM      1  O   HOH     1      15.170  15.827  12.306  0.00  0.00    +0.000 OA
ENDROOT
TORSDOF 0
REMARK  Name = ../refined-set-2016/3bva/3bva_pocket.pdb
REMARK  225 active torsions:
REMARK  status: ('A' for Active; 'I' for Inactive)
REMARK    1  A    between atoms: _1  and  _3
REMARK    2  A    between atoms: _3  and  _4
REMARK    3  A    between atoms: _3  and  _6
REMARK    4  A    between atoms: _6  and  _7
REMARK    5  A    between atoms: _7  and  _8
REMARK    6  A    between atoms: _8  and  _9
REMARK    7  A    between atoms: _18  and  _20
REMARK    8  A    between atoms: _20  and  _21
REMARK    9  A    between atoms: _20  and  _23
REMARK   10  A    between atoms: _23  and  _24
REMARK   11  A    between atoms: _27  and  _29
REMARK   12  A    between atoms: _29  and  _30
REMARK   13  A    between atoms: _29  and  _32
REMARK   14  A    between atoms: _32  and  _33
REMARK   15  A    between atoms: _38  and  _40
REMARK   16  A    between atoms: _40  and  _41
REMARK   17  A    between atoms: _40  and  _43
REMARK   18  A    between atoms: _43  and  _44
REMARK   19  A    between atoms: _47  and  _49
REMARK   20  A    between atoms: _49  and  _50
REMARK   21  A    between atoms: _52  and  _54
REMARK   22  A    between atoms: _54  and  _55
REMARK   23  A    between atoms: _58  and  _60
REMARK   24  A    between atoms: _60  and  _61
REMARK   25  A    between atoms: _60  and  _63
REMARK   26  A    between atoms: _63  and  _64
REMARK   27  A    between atoms: _67  and  _69
REMARK   28  A    between atoms: _69  and  _70
REMARK   29  A    between atoms: _69  and  _72
REMARK   30  A    between atoms: _72  and  _73
REMARK   31  A    between atoms: _76  and  _78
REMARK   32  A    between atoms: _78  and  _79
REMARK   33  A    between atoms: _78  and  _81
REMARK   34  A    between atoms: _81  and  _82
REMARK   35  A    between atoms: _85  and  _87
REMARK   36  A    between atoms: _87  and  _88
REMARK   37  A    between atoms: _87  and  _90
REMARK   38  A    between atoms: _93  and  _95
REMARK   39  A    between atoms: _95  and  _96
REMARK   40  A    between atoms: _95  and  _98
REMARK   41  A    between atoms: _98  and  _99
REMARK   42  A    between atoms: _99  and  _100
REMARK   43  A    between atoms: _100  and  _101
REMARK   44  A    between atoms: _101  and  _102
REMARK   45  A    between atoms: _106  and  _108
REMARK   46  A    between atoms: _108  and  _109
REMARK   47  A    between atoms: _108  and  _111
REMARK   48  A    between atoms: _111  and  _112
REMARK   49  A    between atoms: _112  and  _113
REMARK   50  A    between atoms: _115  and  _117
REMARK   51  A    between atoms: _117  and  _118
REMARK   52  A    between atoms: _117  and  _120
REMARK   53  A    between atoms: _120  and  _121
REMARK   54  A    between atoms: _124  and  _126
REMARK   55  A    between atoms: _126  and  _127
REMARK   56  A    between atoms: _129  and  _131
REMARK   57  A    between atoms: _131  and  _132
REMARK   58  A    between atoms: _134  and  _136
REMARK   59  A    between atoms: _136  and  _137
REMARK   60  A    between atoms: _136  and  _139
REMARK   61  A    between atoms: _139  and  _140
REMARK   62  A    between atoms: _143  and  _145
REMARK   63  A    between atoms: _145  and  _146
REMARK   64  A    between atoms: _148  and  _150
REMARK   65  A    between atoms: _150  and  _151
REMARK   66  A    between atoms: _153  and  _155
REMARK   67  A    between atoms: _155  and  _156
REMARK   68  A    between atoms: _155  and  _158
REMARK   69  A    between atoms: _158  and  _159
REMARK   70  A    between atoms: _165  and  _167
REMARK   71  A    between atoms: _167  and  _168
REMARK   72  A    between atoms: _167  and  _170
REMARK   73  A    between atoms: _170  and  _171
REMARK   74  A    between atoms: _174  and  _176
REMARK   75  A    between atoms: _176  and  _177
REMARK   76  A    between atoms: _176  and  _179
REMARK   77  A    between atoms: _182  and  _184
REMARK   78  A    between atoms: _184  and  _185
REMARK   79  A    between atoms: _184  and  _187
REMARK   80  A    between atoms: _187  and  _188
REMARK   81  A    between atoms: _191  and  _193
REMARK   82  A    between atoms: _193  and  _194
REMARK   83  A    between atoms: _193  and  _196
REMARK   84  A    between atoms: _196  and  _197
REMARK   85  A    between atoms: _201  and  _202
REMARK   86  A    between atoms: _207  and  _209
REMARK   87  A    between atoms: _209  and  _210
REMARK   88  A    between atoms: _209  and  _212
REMARK   89  A    between atoms: _215  and  _217
REMARK   90  A    between atoms: _217  and  _218
REMARK   91  A    between atoms: _217  and  _220
REMARK   92  A    between atoms: _220  and  _221
REMARK   93  A    between atoms: _226  and  _228
REMARK   94  A    between atoms: _228  and  _229
REMARK   95  A    between atoms: _228  and  _231
REMARK   96  A    between atoms: _231  and  _232
REMARK   97  A    between atoms: _235  and  _237
REMARK   98  A    between atoms: _237  and  _238
REMARK   99  A    between atoms: _240  and  _242
REMARK  100  A    between atoms: _242  and  _243
REMARK  101  A    between atoms: _242  and  _245
REMARK  102  A    between atoms: _245  and  _246
REMARK  103  A    between atoms: _246  and  _247
REMARK  104  A    between atoms: _247  and  _248
REMARK  105  A    between atoms: _257  and  _259
REMARK  106  A    between atoms: _259  and  _260
REMARK  107  A    between atoms: _259  and  _262
REMARK  108  A    between atoms: _262  and  _263
REMARK  109  A    between atoms: _268  and  _270
REMARK  110  A    between atoms: _270  and  _271
REMARK  111  A    between atoms: _270  and  _273
REMARK  112  A    between atoms: _273  and  _274
REMARK  113  A    between atoms: _274  and  _275
REMARK  114  A    between atoms: _275  and  _276
REMARK  115  A    between atoms: _285  and  _287
REMARK  116  A    between atoms: _287  and  _288
REMARK  117  A    between atoms: _287  and  _290
REMARK  118  A    between atoms: _290  and  _291
REMARK  119  A    between atoms: _294  and  _296
REMARK  120  A    between atoms: _296  and  _297
REMARK  121  A    between atoms: _296  and  _299
REMARK  122  A    between atoms: _299  and  _300
REMARK  123  A    between atoms: _303  and  _305
REMARK  124  A    between atoms: _305  and  _306
REMARK  125  A    between atoms: _305  and  _308
REMARK  126  A    between atoms: _308  and  _309
REMARK  127  A    between atoms: _314  and  _316
REMARK  128  A    between atoms: _316  and  _317
REMARK  129  A    between atoms: _316  and  _319
REMARK  130  A    between atoms: _319  and  _320
REMARK  131  A    between atoms: _323  and  _325
REMARK  132  A    between atoms: _325  and  _326
REMARK  133  A    between atoms: _328  and  _330
REMARK  134  A    between atoms: _330  and  _331
REMARK  135  A    between atoms: _334  and  _336
REMARK  136  A    between atoms: _336  and  _337
REMARK  137  A    between atoms: _336  and  _339
REMARK  138  A    between atoms: _339  and  _340
REMARK  139  A    between atoms: _343  and  _345
REMARK  140  A    between atoms: _345  and  _346
REMARK  141  A    between atoms: _345  and  _348
REMARK  142  A    between atoms: _348  and  _349
REMARK  143  A    between atoms: _352  and  _354
REMARK  144  A    between atoms: _354  and  _355
REMARK  145  A    between atoms: _354  and  _357
REMARK  146  A    between atoms: _357  and  _358
REMARK  147  A    between atoms: _361  and  _363
REMARK  148  A    between atoms: _363  and  _364
REMARK  149  A    between atoms: _363  and  _366
REMARK  150  A    between atoms: _369  and  _371
REMARK  151  A    between atoms: _371  and  _372
REMARK  152  A    between atoms: _371  and  _374
REMARK  153  A    between atoms: _374  and  _375
REMARK  154  A    between atoms: _375  and  _376
REMARK  155  A    between atoms: _376  and  _377
REMARK  156  A    between atoms: _377  and  _378
REMARK  157  A    between atoms: _382  and  _384
REMARK  158  A    between atoms: _384  and  _385
REMARK  159  A    between atoms: _384  and  _387
REMARK  160  A    between atoms: _387  and  _388
REMARK  161  A    between atoms: _388  and  _389
REMARK  162  A    between atoms: _391  and  _393
REMARK  163  A    between atoms: _393  and  _394
REMARK  164  A    between atoms: _393  and  _396
REMARK  165  A    between atoms: _396  and  _397
REMARK  166  A    between atoms: _400  and  _402
REMARK  167  A    between atoms: _402  and  _403
REMARK  168  A    between atoms: _405  and  _407
REMARK  169  A    between atoms: _407  and  _408
REMARK  170  A    between atoms: _410  and  _412
REMARK  171  A    between atoms: _412  and  _413
REMARK  172  A    between atoms: _412  and  _415
REMARK  173  A    between atoms: _415  and  _416
REMARK  174  A    between atoms: _419  and  _421
REMARK  175  A    between atoms: _421  and  _422
REMARK  176  A    between atoms: _424  and  _426
REMARK  177  A    between atoms: _426  and  _427
REMARK  178  A    between atoms: _429  and  _431
REMARK  179  A    between atoms: _431  and  _432
REMARK  180  A    between atoms: _431  and  _434
REMARK  181  A    between atoms: _434  and  _435
REMARK  182  A    between atoms: _441  and  _443
REMARK  183  A    between atoms: _443  and  _444
REMARK  184  A    between atoms: _443  and  _446
REMARK  185  A    between atoms: _446  and  _447
REMARK  186  A    between atoms: _450  and  _452
REMARK  187  A    between atoms: _452  and  _453
REMARK  188  A    between atoms: _452  and  _455
REMARK  189  A    between atoms: _458  and  _460
REMARK  190  A    between atoms: _460  and  _461
REMARK  191  A    between atoms: _460  and  _463
REMARK  192  A    between atoms: _463  and  _464
REMARK  193  A    between atoms: _468  and  _469
REMARK  194  A    between atoms: _474  and  _476
REMARK  195  A    between atoms: _476  and  _477
REMARK  196  A    between atoms: _476  and  _479
REMARK  197  A    between atoms: _479  and  _480
REMARK  198  A    between atoms: _484  and  _485
REMARK  199  A    between atoms: _490  and  _492
REMARK  200  A    between atoms: _492  and  _493
REMARK  201  A    between atoms: _492  and  _495
REMARK  202  A    between atoms: _498  and  _500
REMARK  203  A    between atoms: _500  and  _501
REMARK  204  A    between atoms: _500  and  _503
REMARK  205  A    between atoms: _503  and  _504
REMARK  206  A    between atoms: _509  and  _511
REMARK  207  A    between atoms: _511  and  _512
REMARK  208  A    between atoms: _511  and  _514
REMARK  209  A    between atoms: _514  and  _515
REMARK  210  A    between atoms: _518  and  _520
REMARK  211  A    between atoms: _520  and  _521
REMARK  212  A    between atoms: _520  and  _523
REMARK  213  A    between atoms: _523  and  _524
REMARK  214  A    between atoms: _527  and  _529
REMARK  215  A    between atoms: _529  and  _530
REMARK  216  A    between atoms: _532  and  _534
REMARK  217  A    between atoms: _534  and  _535
REMARK  218  A    between atoms: _534  and  _537
REMARK  219  A    between atoms: _537  and  _538
REMARK  220  A    between atoms: _538  and  _539
REMARK  221  A    between atoms: _539  and  _540
REMARK  222  A    between atoms: _549  and  _551
REMARK  223  A    between atoms: _551  and  _552
REMARK  224  A    between atoms: _551  and  _554
REMARK  225  A    between atoms: _554  and  _555
REMARK                            x       y       z     vdW  Elec       q    Type
REMARK                         _______ _______ _______ _____ _____    ______ ____
ROOT
ATOM      1  O   HOH     1      19.098  16.967   9.498  0.00  0.00    +0.000 OA
ENDROOT
TORSDOF 0
REMARK  Name = ../refined-set-2016/3bva/3bva_pocket.pdb
REMARK  225 active torsions:
REMARK  status: ('A' for Active; 'I' for Inactive)
REMARK    1  A    between atoms: _1  and  _3
REMARK    2  A    between atoms: _3  and  _4
REMARK    3  A    between atoms: _3  and  _6
REMARK    4  A    between atoms: _6  and  _7
REMARK    5  A    between atoms: _7  and  _8
REMARK    6  A    between atoms: _8  and  _9
REMARK    7  A    between atoms: _18  and  _20
REMARK    8  A    between atoms: _20  and  _21
REMARK    9  A    between atoms: _20  and  _23
REMARK   10  A    between atoms: _23  and  _24
REMARK   11  A    between atoms: _27  and  _29
REMARK   12  A    between atoms: _29  and  _30
REMARK   13  A    between atoms: _29  and  _32
REMARK   14  A    between atoms: _32  and  _33
REMARK   15  A    between atoms: _38  and  _40
REMARK   16  A    between atoms: _40  and  _41
REMARK   17  A    between atoms: _40  and  _43
REMARK   18  A    between atoms: _43  and  _44
REMARK   19  A    between atoms: _47  and  _49
REMARK   20  A    between atoms: _49  and  _50
REMARK   21  A    between atoms: _52  and  _54
REMARK   22  A    between atoms: _54  and  _55
REMARK   23  A    between atoms: _58  and  _60
REMARK   24  A    between atoms: _60  and  _61
REMARK   25  A    between atoms: _60  and  _63
REMARK   26  A    between atoms: _63  and  _64
REMARK   27  A    between atoms: _67  and  _69
REMARK   28  A    between atoms: _69  and  _70
REMARK   29  A    between atoms: _69  and  _72
REMARK   30  A    between atoms: _72  and  _73
REMARK   31  A    between atoms: _76  and  _78
REMARK   32  A    between atoms: _78  and  _79
REMARK   33  A    between atoms: _78  and  _81
REMARK   34  A    between atoms: _81  and  _82
REMARK   35  A    between atoms: _85  and  _87
REMARK   36  A    between atoms: _87  and  _88
REMARK   37  A    between atoms: _87  and  _90
REMARK   38  A    between atoms: _93  and  _95
REMARK   39  A    between atoms: _95  and  _96
REMARK   40  A    between atoms: _95  and  _98
REMARK   41  A    between atoms: _98  and  _99
REMARK   42  A    between atoms: _99  and  _100
REMARK   43  A    between atoms: _100  and  _101
REMARK   44  A    between atoms: _101  and  _102
REMARK   45  A    between atoms: _106  and  _108
REMARK   46  A    between atoms: _108  and  _109
REMARK   47  A    between atoms: _108  and  _111
REMARK   48  A    between atoms: _111  and  _112
REMARK   49  A    between atoms: _112  and  _113
REMARK   50  A    between atoms: _115  and  _117
REMARK   51  A    between atoms: _117  and  _118
REMARK   52  A    between atoms: _117  and  _120
REMARK   53  A    between atoms: _120  and  _121
REMARK   54  A    between atoms: _124  and  _126
REMARK   55  A    between atoms: _126  and  _127
REMARK   56  A    between atoms: _129  and  _131
REMARK   57  A    between atoms: _131  and  _132
REMARK   58  A    between atoms: _134  and  _136
REMARK   59  A    between atoms: _136  and  _137
REMARK   60  A    between atoms: _136  and  _139
REMARK   61  A    between atoms: _139  and  _140
REMARK   62  A    between atoms: _143  and  _145
REMARK   63  A    between atoms: _145  and  _146
REMARK   64  A    between atoms: _148  and  _150
REMARK   65  A    between atoms: _150  and  _151
REMARK   66  A    between atoms: _153  and  _155
REMARK   67  A    between atoms: _155  and  _156
REMARK   68  A    between atoms: _155  and  _158
REMARK   69  A    between atoms: _158  and  _159
REMARK   70  A    between atoms: _165  and  _167
REMARK   71  A    between atoms: _167  and  _168
REMARK   72  A    between atoms: _167  and  _170
REMARK   73  A    between atoms: _170  and  _171
REMARK   74  A    between atoms: _174  and  _176
REMARK   75  A    between atoms: _176  and  _177
REMARK   76  A    between atoms: _176  and  _179
REMARK   77  A    between atoms: _182  and  _184
REMARK   78  A    between atoms: _184  and  _185
REMARK   79  A    between atoms: _184  and  _187
REMARK   80  A    between atoms: _187  and  _188
REMARK   81  A    between atoms: _191  and  _193
REMARK   82  A    between atoms: _193  and  _194
REMARK   83  A    between atoms: _193  and  _196
REMARK   84  A    between atoms: _196  and  _197
REMARK   85  A    between atoms: _201  and  _202
REMARK   86  A    between atoms: _207  and  _209
REMARK   87  A    between atoms: _209  and  _210
REMARK   88  A    between atoms: _209  and  _212
REMARK   89  A    between atoms: _215  and  _217
REMARK   90  A    between atoms: _217  and  _218
REMARK   91  A    between atoms: _217  and  _220
REMARK   92  A    between atoms: _220  and  _221
REMARK   93  A    between atoms: _226  and  _228
REMARK   94  A    between atoms: _228  and  _229
REMARK   95  A    between atoms: _228  and  _231
REMARK   96  A    between atoms: _231  and  _232
REMARK   97  A    between atoms: _235  and  _237
REMARK   98  A    between atoms: _237  and  _238
REMARK   99  A    between atoms: _240  and  _242
REMARK  100  A    between atoms: _242  and  _243
REMARK  101  A    between atoms: _242  and  _245
REMARK  102  A    between atoms: _245  and  _246
REMARK  103  A    between atoms: _246  and  _247
REMARK  104  A    between atoms: _247  and  _248
REMARK  105  A    between atoms: _257  and  _259
REMARK  106  A    between atoms: _259  and  _260
REMARK  107  A    between atoms: _259  and  _262
REMARK  108  A    between atoms: _262  and  _263
REMARK  109  A    between atoms: _268  and  _270
REMARK  110  A    between atoms: _270  and  _271
REMARK  111  A    between atoms: _270  and  _273
REMARK  112  A    between atoms: _273  and  _274
REMARK  113  A    between atoms: _274  and  _275
REMARK  114  A    between atoms: _275  and  _276
REMARK  115  A    between atoms: _285  and  _287
REMARK  116  A    between atoms: _287  and  _288
REMARK  117  A    between atoms: _287  and  _290
REMARK  118  A    between atoms: _290  and  _291
REMARK  119  A    between atoms: _294  and  _296
REMARK  120  A    between atoms: _296  and  _297
REMARK  121  A    between atoms: _296  and  _299
REMARK  122  A    between atoms: _299  and  _300
REMARK  123  A    between atoms: _303  and  _305
REMARK  124  A    between atoms: _305  and  _306
REMARK  125  A    between atoms: _305  and  _308
REMARK  126  A    between atoms: _308  and  _309
REMARK  127  A    between atoms: _314  and  _316
REMARK  128  A    between atoms: _316  and  _317
REMARK  129  A    between atoms: _316  and  _319
REMARK  130  A    between atoms: _319  and  _320
REMARK  131  A    between atoms: _323  and  _325
REMARK  132  A    between atoms: _325  and  _326
REMARK  133  A    between atoms: _328  and  _330
REMARK  134  A    between atoms: _330  and  _331
REMARK  135  A    between atoms: _334  and  _336
REMARK  136  A    between atoms: _336  and  _337
REMARK  137  A    between atoms: _336  and  _339
REMARK  138  A    between atoms: _339  and  _340
REMARK  139  A    between atoms: _343  and  _345
REMARK  140  A    between atoms: _345  and  _346
REMARK  141  A    between atoms: _345  and  _348
REMARK  142  A    between atoms: _348  and  _349
REMARK  143  A    between atoms: _352  and  _354
REMARK  144  A    between atoms: _354  and  _355
REMARK  145  A    between atoms: _354  and  _357
REMARK  146  A    between atoms: _357  and  _358
REMARK  147  A    between atoms: _361  and  _363
REMARK  148  A    between atoms: _363  and  _364
REMARK  149  A    between atoms: _363  and  _366
REMARK  150  A    between atoms: _369  and  _371
REMARK  151  A    between atoms: _371  and  _372
REMARK  152  A    between atoms: _371  and  _374
REMARK  153  A    between atoms: _374  and  _375
REMARK  154  A    between atoms: _375  and  _376
REMARK  155  A    between atoms: _376  and  _377
REMARK  156  A    between atoms: _377  and  _378
REMARK  157  A    between atoms: _382  and  _384
REMARK  158  A    between atoms: _384  and  _385
REMARK  159  A    between atoms: _384  and  _387
REMARK  160  A    between atoms: _387  and  _388
REMARK  161  A    between atoms: _388  and  _389
REMARK  162  A    between atoms: _391  and  _393
REMARK  163  A    between atoms: _393  and  _394
REMARK  164  A    between atoms: _393  and  _396
REMARK  165  A    between atoms: _396  and  _397
REMARK  166  A    between atoms: _400  and  _402
REMARK  167  A    between atoms: _402  and  _403
REMARK  168  A    between atoms: _405  and  _407
REMARK  169  A    between atoms: _407  and  _408
REMARK  170  A    between atoms: _410  and  _412
REMARK  171  A    between atoms: _412  and  _413
REMARK  172  A    between atoms: _412  and  _415
REMARK  173  A    between atoms: _415  and  _416
REMARK  174  A    between atoms: _419  and  _421
REMARK  175  A    between atoms: _421  and  _422
REMARK  176  A    between atoms: _424  and  _426
REMARK  177  A    between atoms: _426  and  _427
REMARK  178  A    between atoms: _429  and  _431
REMARK  179  A    between atoms: _431  and  _432
REMARK  180  A    between atoms: _431  and  _434
REMARK  181  A    between atoms: _434  and  _435
REMARK  182  A    between atoms: _441  and  _443
REMARK  183  A    between atoms: _443  and  _444
REMARK  184  A    between atoms: _443  and  _446
REMARK  185  A    between atoms: _446  and  _447
REMARK  186  A    between atoms: _450  and  _452
REMARK  187  A    between atoms: _452  and  _453
REMARK  188  A    between atoms: _452  and  _455
REMARK  189  A    between atoms: _458  and  _460
REMARK  190  A    between atoms: _460  and  _461
REMARK  191  A    between atoms: _460  and  _463
REMARK  192  A    between atoms: _463  and  _464
REMARK  193  A    between atoms: _468  and  _469
REMARK  194  A    between atoms: _474  and  _476
REMARK  195  A    between atoms: _476  and  _477
REMARK  196  A    between atoms: _476  and  _479
REMARK  197  A    between atoms: _479  and  _480
REMARK  198  A    between atoms: _484  and  _485
REMARK  199  A    between atoms: _490  and  _492
REMARK  200  A    between atoms: _492  and  _493
REMARK  201  A    between atoms: _492  and  _495
REMARK  202  A    between atoms: _498  and  _500
REMARK  203  A    between atoms: _500  and  _501
REMARK  204  A    between atoms: _500  and  _503
REMARK  205  A    between atoms: _503  and  _504
REMARK  206  A    between atoms: _509  and  _511
REMARK  207  A    between atoms: _511  and  _512
REMARK  208  A    between atoms: _511  and  _514
REMARK  209  A    between atoms: _514  and  _515
REMARK  210  A    between atoms: _518  and  _520
REMARK  211  A    between atoms: _520  and  _521
REMARK  212  A    between atoms: _520  and  _523
REMARK  213  A    between atoms: _523  and  _524
REMARK  214  A    between atoms: _527  and  _529
REMARK  215  A    between atoms: _529  and  _530
REMARK  216  A    between atoms: _532  and  _534
REMARK  217  A    between atoms: _534  and  _535
REMARK  218  A    between atoms: _534  and  _537
REMARK  219  A    between atoms: _537  and  _538
REMARK  220  A    between atoms: _538  and  _539
REMARK  221  A    between atoms: _539  and  _540
REMARK  222  A    between atoms: _549  and  _551
REMARK  223  A    between atoms: _551  and  _552
REMARK  224  A    between atoms: _551  and  _554
REMARK  225  A    between atoms: _554  and  _555
REMARK                            x       y       z     vdW  Elec       q    Type
REMARK                         _______ _______ _______ _____ _____    ______ ____
ROOT
ATOM      1  O   HOH     1       6.661  15.792  25.848  0.00  0.00    +0.000 OA
ENDROOT
TORSDOF 0
REMARK  Name = ../refined-set-2016/3bva/3bva_pocket.pdb
REMARK  225 active torsions:
REMARK  status: ('A' for Active; 'I' for Inactive)
REMARK    1  A    between atoms: _1  and  _3
REMARK    2  A    between atoms: _3  and  _4
REMARK    3  A    between atoms: _3  and  _6
REMARK    4  A    between atoms: _6  and  _7
REMARK    5  A    between atoms: _7  and  _8
REMARK    6  A    between atoms: _8  and  _9
REMARK    7  A    between atoms: _18  and  _20
REMARK    8  A    between atoms: _20  and  _21
REMARK    9  A    between atoms: _20  and  _23
REMARK   10  A    between atoms: _23  and  _24
REMARK   11  A    between atoms: _27  and  _29
REMARK   12  A    between atoms: _29  and  _30
REMARK   13  A    between atoms: _29  and  _32
REMARK   14  A    between atoms: _32  and  _33
REMARK   15  A    between atoms: _38  and  _40
REMARK   16  A    between atoms: _40  and  _41
REMARK   17  A    between atoms: _40  and  _43
REMARK   18  A    between atoms: _43  and  _44
REMARK   19  A    between atoms: _47  and  _49
REMARK   20  A    between atoms: _49  and  _50
REMARK   21  A    between atoms: _52  and  _54
REMARK   22  A    between atoms: _54  and  _55
REMARK   23  A    between atoms: _58  and  _60
REMARK   24  A    between atoms: _60  and  _61
REMARK   25  A    between atoms: _60  and  _63
REMARK   26  A    between atoms: _63  and  _64
REMARK   27  A    between atoms: _67  and  _69
REMARK   28  A    between atoms: _69  and  _70
REMARK   29  A    between atoms: _69  and  _72
REMARK   30  A    between atoms: _72  and  _73
REMARK   31  A    between atoms: _76  and  _78
REMARK   32  A    between atoms: _78  and  _79
REMARK   33  A    between atoms: _78  and  _81
REMARK   34  A    between atoms: _81  and  _82
REMARK   35  A    between atoms: _85  and  _87
REMARK   36  A    between atoms: _87  and  _88
REMARK   37  A    between atoms: _87  and  _90
REMARK   38  A    between atoms: _93  and  _95
REMARK   39  A    between atoms: _95  and  _96
REMARK   40  A    between atoms: _95  and  _98
REMARK   41  A    between atoms: _98  and  _99
REMARK   42  A    between atoms: _99  and  _100
REMARK   43  A    between atoms: _100  and  _101
REMARK   44  A    between atoms: _101  and  _102
REMARK   45  A    between atoms: _106  and  _108
REMARK   46  A    between atoms: _108  and  _109
REMARK   47  A    between atoms: _108  and  _111
REMARK   48  A    between atoms: _111  and  _112
REMARK   49  A    between atoms: _112  and  _113
REMARK   50  A    between atoms: _115  and  _117
REMARK   51  A    between atoms: _117  and  _118
REMARK   52  A    between atoms: _117  and  _120
REMARK   53  A    between atoms: _120  and  _121
REMARK   54  A    between atoms: _124  and  _126
REMARK   55  A    between atoms: _126  and  _127
REMARK   56  A    between atoms: _129  and  _131
REMARK   57  A    between atoms: _131  and  _132
REMARK   58  A    between atoms: _134  and  _136
REMARK   59  A    between atoms: _136  and  _137
REMARK   60  A    between atoms: _136  and  _139
REMARK   61  A    between atoms: _139  and  _140
REMARK   62  A    between atoms: _143  and  _145
REMARK   63  A    between atoms: _145  and  _146
REMARK   64  A    between atoms: _148  and  _150
REMARK   65  A    between atoms: _150  and  _151
REMARK   66  A    between atoms: _153  and  _155
REMARK   67  A    between atoms: _155  and  _156
REMARK   68  A    between atoms: _155  and  _158
REMARK   69  A    between atoms: _158  and  _159
REMARK   70  A    between atoms: _165  and  _167
REMARK   71  A    between atoms: _167  and  _168
REMARK   72  A    between atoms: _167  and  _170
REMARK   73  A    between atoms: _170  and  _171
REMARK   74  A    between atoms: _174  and  _176
REMARK   75  A    between atoms: _176  and  _177
REMARK   76  A    between atoms: _176  and  _179
REMARK   77  A    between atoms: _182  and  _184
REMARK   78  A    between atoms: _184  and  _185
REMARK   79  A    between atoms: _184  and  _187
REMARK   80  A    between atoms: _187  and  _188
REMARK   81  A    between atoms: _191  and  _193
REMARK   82  A    between atoms: _193  and  _194
REMARK   83  A    between atoms: _193  and  _196
REMARK   84  A    between atoms: _196  and  _197
REMARK   85  A    between atoms: _201  and  _202
REMARK   86  A    between atoms: _207  and  _209
REMARK   87  A    between atoms: _209  and  _210
REMARK   88  A    between atoms: _209  and  _212
REMARK   89  A    between atoms: _215  and  _217
REMARK   90  A    between atoms: _217  and  _218
REMARK   91  A    between atoms: _217  and  _220
REMARK   92  A    between atoms: _220  and  _221
REMARK   93  A    between atoms: _226  and  _228
REMARK   94  A    between atoms: _228  and  _229
REMARK   95  A    between atoms: _228  and  _231
REMARK   96  A    between atoms: _231  and  _232
REMARK   97  A    between atoms: _235  and  _237
REMARK   98  A    between atoms: _237  and  _238
REMARK   99  A    between atoms: _240  and  _242
REMARK  100  A    between atoms: _242  and  _243
REMARK  101  A    between atoms: _242  and  _245
REMARK  102  A    between atoms: _245  and  _246
REMARK  103  A    between atoms: _246  and  _247
REMARK  104  A    between atoms: _247  and  _248
REMARK  105  A    between atoms: _257  and  _259
REMARK  106  A    between atoms: _259  and  _260
REMARK  107  A    between atoms: _259  and  _262
REMARK  108  A    between atoms: _262  and  _263
REMARK  109  A    between atoms: _268  and  _270
REMARK  110  A    between atoms: _270  and  _271
REMARK  111  A    between atoms: _270  and  _273
REMARK  112  A    between atoms: _273  and  _274
REMARK  113  A    between atoms: _274  and  _275
REMARK  114  A    between atoms: _275  and  _276
REMARK  115  A    between atoms: _285  and  _287
REMARK  116  A    between atoms: _287  and  _288
REMARK  117  A    between atoms: _287  and  _290
REMARK  118  A    between atoms: _290  and  _291
REMARK  119  A    between atoms: _294  and  _296
REMARK  120  A    between atoms: _296  and  _297
REMARK  121  A    between atoms: _296  and  _299
REMARK  122  A    between atoms: _299  and  _300
REMARK  123  A    between atoms: _303  and  _305
REMARK  124  A    between atoms: _305  and  _306
REMARK  125  A    between atoms: _305  and  _308
REMARK  126  A    between atoms: _308  and  _309
REMARK  127  A    between atoms: _314  and  _316
REMARK  128  A    between atoms: _316  and  _317
REMARK  129  A    between atoms: _316  and  _319
REMARK  130  A    between atoms: _319  and  _320
REMARK  131  A    between atoms: _323  and  _325
REMARK  132  A    between atoms: _325  and  _326
REMARK  133  A    between atoms: _328  and  _330
REMARK  134  A    between atoms: _330  and  _331
REMARK  135  A    between atoms: _334  and  _336
REMARK  136  A    between atoms: _336  and  _337
REMARK  137  A    between atoms: _336  and  _339
REMARK  138  A    between atoms: _339  and  _340
REMARK  139  A    between atoms: _343  and  _345
REMARK  140  A    between atoms: _345  and  _346
REMARK  141  A    between atoms: _345  and  _348
REMARK  142  A    between atoms: _348  and  _349
REMARK  143  A    between atoms: _352  and  _354
REMARK  144  A    between atoms: _354  and  _355
REMARK  145  A    between atoms: _354  and  _357
REMARK  146  A    between atoms: _357  and  _358
REMARK  147  A    between atoms: _361  and  _363
REMARK  148  A    between atoms: _363  and  _364
REMARK  149  A    between atoms: _363  and  _366
REMARK  150  A    between atoms: _369  and  _371
REMARK  151  A    between atoms: _371  and  _372
REMARK  152  A    between atoms: _371  and  _374
REMARK  153  A    between atoms: _374  and  _375
REMARK  154  A    between atoms: _375  and  _376
REMARK  155  A    between atoms: _376  and  _377
REMARK  156  A    between atoms: _377  and  _378
REMARK  157  A    between atoms: _382  and  _384
REMARK  158  A    between atoms: _384  and  _385
REMARK  159  A    between atoms: _384  and  _387
REMARK  160  A    between atoms: _387  and  _388
REMARK  161  A    between atoms: _388  and  _389
REMARK  162  A    between atoms: _391  and  _393
REMARK  163  A    between atoms: _393  and  _394
REMARK  164  A    between atoms: _393  and  _396
REMARK  165  A    between atoms: _396  and  _397
REMARK  166  A    between atoms: _400  and  _402
REMARK  167  A    between atoms: _402  and  _403
REMARK  168  A    between atoms: _405  and  _407
REMARK  169  A    between atoms: _407  and  _408
REMARK  170  A    between atoms: _410  and  _412
REMARK  171  A    between atoms: _412  and  _413
REMARK  172  A    between atoms: _412  and  _415
REMARK  173  A    between atoms: _415  and  _416
REMARK  174  A    between atoms: _419  and  _421
REMARK  175  A    between atoms: _421  and  _422
REMARK  176  A    between atoms: _424  and  _426
REMARK  177  A    between atoms: _426  and  _427
REMARK  178  A    between atoms: _429  and  _431
REMARK  179  A    between atoms: _431  and  _432
REMARK  180  A    between atoms: _431  and  _434
REMARK  181  A    between atoms: _434  and  _435
REMARK  182  A    between atoms: _441  and  _443
REMARK  183  A    between atoms: _443  and  _444
REMARK  184  A    between atoms: _443  and  _446
REMARK  185  A    between atoms: _446  and  _447
REMARK  186  A    between atoms: _450  and  _452
REMARK  187  A    between atoms: _452  and  _453
REMARK  188  A    between atoms: _452  and  _455
REMARK  189  A    between atoms: _458  and  _460
REMARK  190  A    between atoms: _460  and  _461
REMARK  191  A    between atoms: _460  and  _463
REMARK  192  A    between atoms: _463  and  _464
REMARK  193  A    between atoms: _468  and  _469
REMARK  194  A    between atoms: _474  and  _476
REMARK  195  A    between atoms: _476  and  _477
REMARK  196  A    between atoms: _476  and  _479
REMARK  197  A    between atoms: _479  and  _480
REMARK  198  A    between atoms: _484  and  _485
REMARK  199  A    between atoms: _490  and  _492
REMARK  200  A    between atoms: _492  and  _493
REMARK  201  A    between atoms: _492  and  _495
REMARK  202  A    between atoms: _498  and  _500
REMARK  203  A    between atoms: _500  and  _501
REMARK  204  A    between atoms: _500  and  _503
REMARK  205  A    between atoms: _503  and  _504
REMARK  206  A    between atoms: _509  and  _511
REMARK  207  A    between atoms: _511  and  _512
REMARK  208  A    between atoms: _511  and  _514
REMARK  209  A    between atoms: _514  and  _515
REMARK  210  A    between atoms: _518  and  _520
REMARK  211  A    between atoms: _520  and  _521
REMARK  212  A    between atoms: _520  and  _523
REMARK  213  A    between atoms: _523  and  _524
REMARK  214  A    between atoms: _527  and  _529
REMARK  215  A    between atoms: _529  and  _530
REMARK  216  A    between atoms: _532  and  _534
REMARK  217  A    between atoms: _534  and  _535
REMARK  218  A    between atoms: _534  and  _537
REMARK  219  A    between atoms: _537  and  _538
REMARK  220  A    between atoms: _538  and  _539
REMARK  221  A    between atoms: _539  and  _540
REMARK  222  A    between atoms: _549  and  _551
REMARK  223  A    between atoms: _551  and  _552
REMARK  224  A    between atoms: _551  and  _554
REMARK  225  A    between atoms: _554  and  _555
REMARK                            x       y       z     vdW  Elec       q    Type
REMARK                         _______ _______ _______ _____ _____    ______ ____
ROOT
ATOM      1  O   HOH     1       6.781  14.782  20.434  0.00  0.00    +0.000 OA
ENDROOT
TORSDOF 0
REMARK  Name = ../refined-set-2016/3bva/3bva_pocket.pdb
REMARK  225 active torsions:
REMARK  status: ('A' for Active; 'I' for Inactive)
REMARK    1  A    between atoms: _1  and  _3
REMARK    2  A    between atoms: _3  and  _4
REMARK    3  A    between atoms: _3  and  _6
REMARK    4  A    between atoms: _6  and  _7
REMARK    5  A    between atoms: _7  and  _8
REMARK    6  A    between atoms: _8  and  _9
REMARK    7  A    between atoms: _18  and  _20
REMARK    8  A    between atoms: _20  and  _21
REMARK    9  A    between atoms: _20  and  _23
REMARK   10  A    between atoms: _23  and  _24
REMARK   11  A    between atoms: _27  and  _29
REMARK   12  A    between atoms: _29  and  _30
REMARK   13  A    between atoms: _29  and  _32
REMARK   14  A    between atoms: _32  and  _33
REMARK   15  A    between atoms: _38  and  _40
REMARK   16  A    between atoms: _40  and  _41
REMARK   17  A    between atoms: _40  and  _43
REMARK   18  A    between atoms: _43  and  _44
REMARK   19  A    between atoms: _47  and  _49
REMARK   20  A    between atoms: _49  and  _50
REMARK   21  A    between atoms: _52  and  _54
REMARK   22  A    between atoms: _54  and  _55
REMARK   23  A    between atoms: _58  and  _60
REMARK   24  A    between atoms: _60  and  _61
REMARK   25  A    between atoms: _60  and  _63
REMARK   26  A    between atoms: _63  and  _64
REMARK   27  A    between atoms: _67  and  _69
REMARK   28  A    between atoms: _69  and  _70
REMARK   29  A    between atoms: _69  and  _72
REMARK   30  A    between atoms: _72  and  _73
REMARK   31  A    between atoms: _76  and  _78
REMARK   32  A    between atoms: _78  and  _79
REMARK   33  A    between atoms: _78  and  _81
REMARK   34  A    between atoms: _81  and  _82
REMARK   35  A    between atoms: _85  and  _87
REMARK   36  A    between atoms: _87  and  _88
REMARK   37  A    between atoms: _87  and  _90
REMARK   38  A    between atoms: _93  and  _95
REMARK   39  A    between atoms: _95  and  _96
REMARK   40  A    between atoms: _95  and  _98
REMARK   41  A    between atoms: _98  and  _99
REMARK   42  A    between atoms: _99  and  _100
REMARK   43  A    between atoms: _100  and  _101
REMARK   44  A    between atoms: _101  and  _102
REMARK   45  A    between atoms: _106  and  _108
REMARK   46  A    between atoms: _108  and  _109
REMARK   47  A    between atoms: _108  and  _111
REMARK   48  A    between atoms: _111  and  _112
REMARK   49  A    between atoms: _112  and  _113
REMARK   50  A    between atoms: _115  and  _117
REMARK   51  A    between atoms: _117  and  _118
REMARK   52  A    between atoms: _117  and  _120
REMARK   53  A    between atoms: _120  and  _121
REMARK   54  A    between atoms: _124  and  _126
REMARK   55  A    between atoms: _126  and  _127
REMARK   56  A    between atoms: _129  and  _131
REMARK   57  A    between atoms: _131  and  _132
REMARK   58  A    between atoms: _134  and  _136
REMARK   59  A    between atoms: _136  and  _137
REMARK   60  A    between atoms: _136  and  _139
REMARK   61  A    between atoms: _139  and  _140
REMARK   62  A    between atoms: _143  and  _145
REMARK   63  A    between atoms: _145  and  _146
REMARK   64  A    between atoms: _148  and  _150
REMARK   65  A    between atoms: _150  and  _151
REMARK   66  A    between atoms: _153  and  _155
REMARK   67  A    between atoms: _155  and  _156
REMARK   68  A    between atoms: _155  and  _158
REMARK   69  A    between atoms: _158  and  _159
REMARK   70  A    between atoms: _165  and  _167
REMARK   71  A    between atoms: _167  and  _168
REMARK   72  A    between atoms: _167  and  _170
REMARK   73  A    between atoms: _170  and  _171
REMARK   74  A    between atoms: _174  and  _176
REMARK   75  A    between atoms: _176  and  _177
REMARK   76  A    between atoms: _176  and  _179
REMARK   77  A    between atoms: _182  and  _184
REMARK   78  A    between atoms: _184  and  _185
REMARK   79  A    between atoms: _184  and  _187
REMARK   80  A    between atoms: _187  and  _188
REMARK   81  A    between atoms: _191  and  _193
REMARK   82  A    between atoms: _193  and  _194
REMARK   83  A    between atoms: _193  and  _196
REMARK   84  A    between atoms: _196  and  _197
REMARK   85  A    between atoms: _201  and  _202
REMARK   86  A    between atoms: _207  and  _209
REMARK   87  A    between atoms: _209  and  _210
REMARK   88  A    between atoms: _209  and  _212
REMARK   89  A    between atoms: _215  and  _217
REMARK   90  A    between atoms: _217  and  _218
REMARK   91  A    between atoms: _217  and  _220
REMARK   92  A    between atoms: _220  and  _221
REMARK   93  A    between atoms: _226  and  _228
REMARK   94  A    between atoms: _228  and  _229
REMARK   95  A    between atoms: _228  and  _231
REMARK   96  A    between atoms: _231  and  _232
REMARK   97  A    between atoms: _235  and  _237
REMARK   98  A    between atoms: _237  and  _238
REMARK   99  A    between atoms: _240  and  _242
REMARK  100  A    between atoms: _242  and  _243
REMARK  101  A    between atoms: _242  and  _245
REMARK  102  A    between atoms: _245  and  _246
REMARK  103  A    between atoms: _246  and  _247
REMARK  104  A    between atoms: _247  and  _248
REMARK  105  A    between atoms: _257  and  _259
REMARK  106  A    between atoms: _259  and  _260
REMARK  107  A    between atoms: _259  and  _262
REMARK  108  A    between atoms: _262  and  _263
REMARK  109  A    between atoms: _268  and  _270
REMARK  110  A    between atoms: _270  and  _271
REMARK  111  A    between atoms: _270  and  _273
REMARK  112  A    between atoms: _273  and  _274
REMARK  113  A    between atoms: _274  and  _275
REMARK  114  A    between atoms: _275  and  _276
REMARK  115  A    between atoms: _285  and  _287
REMARK  116  A    between atoms: _287  and  _288
REMARK  117  A    between atoms: _287  and  _290
REMARK  118  A    between atoms: _290  and  _291
REMARK  119  A    between atoms: _294  and  _296
REMARK  120  A    between atoms: _296  and  _297
REMARK  121  A    between atoms: _296  and  _299
REMARK  122  A    between atoms: _299  and  _300
REMARK  123  A    between atoms: _303  and  _305
REMARK  124  A    between atoms: _305  and  _306
REMARK  125  A    between atoms: _305  and  _308
REMARK  126  A    between atoms: _308  and  _309
REMARK  127  A    between atoms: _314  and  _316
REMARK  128  A    between atoms: _316  and  _317
REMARK  129  A    between atoms: _316  and  _319
REMARK  130  A    between atoms: _319  and  _320
REMARK  131  A    between atoms: _323  and  _325
REMARK  132  A    between atoms: _325  and  _326
REMARK  133  A    between atoms: _328  and  _330
REMARK  134  A    between atoms: _330  and  _331
REMARK  135  A    between atoms: _334  and  _336
REMARK  136  A    between atoms: _336  and  _337
REMARK  137  A    between atoms: _336  and  _339
REMARK  138  A    between atoms: _339  and  _340
REMARK  139  A    between atoms: _343  and  _345
REMARK  140  A    between atoms: _345  and  _346
REMARK  141  A    between atoms: _345  and  _348
REMARK  142  A    between atoms: _348  and  _349
REMARK  143  A    between atoms: _352  and  _354
REMARK  144  A    between atoms: _354  and  _355
REMARK  145  A    between atoms: _354  and  _357
REMARK  146  A    between atoms: _357  and  _358
REMARK  147  A    between atoms: _361  and  _363
REMARK  148  A    between atoms: _363  and  _364
REMARK  149  A    between atoms: _363  and  _366
REMARK  150  A    between atoms: _369  and  _371
REMARK  151  A    between atoms: _371  and  _372
REMARK  152  A    between atoms: _371  and  _374
REMARK  153  A    between atoms: _374  and  _375
REMARK  154  A    between atoms: _375  and  _376
REMARK  155  A    between atoms: _376  and  _377
REMARK  156  A    between atoms: _377  and  _378
REMARK  157  A    between atoms: _382  and  _384
REMARK  158  A    between atoms: _384  and  _385
REMARK  159  A    between atoms: _384  and  _387
REMARK  160  A    between atoms: _387  and  _388
REMARK  161  A    between atoms: _388  and  _389
REMARK  162  A    between atoms: _391  and  _393
REMARK  163  A    between atoms: _393  and  _394
REMARK  164  A    between atoms: _393  and  _396
REMARK  165  A    between atoms: _396  and  _397
REMARK  166  A    between atoms: _400  and  _402
REMARK  167  A    between atoms: _402  and  _403
REMARK  168  A    between atoms: _405  and  _407
REMARK  169  A    between atoms: _407  and  _408
REMARK  170  A    between atoms: _410  and  _412
REMARK  171  A    between atoms: _412  and  _413
REMARK  172  A    between atoms: _412  and  _415
REMARK  173  A    between atoms: _415  and  _416
REMARK  174  A    between atoms: _419  and  _421
REMARK  175  A    between atoms: _421  and  _422
REMARK  176  A    between atoms: _424  and  _426
REMARK  177  A    between atoms: _426  and  _427
REMARK  178  A    between atoms: _429  and  _431
REMARK  179  A    between atoms: _431  and  _432
REMARK  180  A    between atoms: _431  and  _434
REMARK  181  A    between atoms: _434  and  _435
REMARK  182  A    between atoms: _441  and  _443
REMARK  183  A    between atoms: _443  and  _444
REMARK  184  A    between atoms: _443  and  _446
REMARK  185  A    between atoms: _446  and  _447
REMARK  186  A    between atoms: _450  and  _452
REMARK  187  A    between atoms: _452  and  _453
REMARK  188  A    between atoms: _452  and  _455
REMARK  189  A    between atoms: _458  and  _460
REMARK  190  A    between atoms: _460  and  _461
REMARK  191  A    between atoms: _460  and  _463
REMARK  192  A    between atoms: _463  and  _464
REMARK  193  A    between atoms: _468  and  _469
REMARK  194  A    between atoms: _474  and  _476
REMARK  195  A    between atoms: _476  and  _477
REMARK  196  A    between atoms: _476  and  _479
REMARK  197  A    between atoms: _479  and  _480
REMARK  198  A    between atoms: _484  and  _485
REMARK  199  A    between atoms: _490  and  _492
REMARK  200  A    between atoms: _492  and  _493
REMARK  201  A    between atoms: _492  and  _495
REMARK  202  A    between atoms: _498  and  _500
REMARK  203  A    between atoms: _500  and  _501
REMARK  204  A    between atoms: _500  and  _503
REMARK  205  A    between atoms: _503  and  _504
REMARK  206  A    between atoms: _509  and  _511
REMARK  207  A    between atoms: _511  and  _512
REMARK  208  A    between atoms: _511  and  _514
REMARK  209  A    between atoms: _514  and  _515
REMARK  210  A    between atoms: _518  and  _520
REMARK  211  A    between atoms: _520  and  _521
REMARK  212  A    between atoms: _520  and  _523
REMARK  213  A    between atoms: _523  and  _524
REMARK  214  A    between atoms: _527  and  _529
REMARK  215  A    between atoms: _529  and  _530
REMARK  216  A    between atoms: _532  and  _534
REMARK  217  A    between atoms: _534  and  _535
REMARK  218  A    between atoms: _534  and  _537
REMARK  219  A    between atoms: _537  and  _538
REMARK  220  A    between atoms: _538  and  _539
REMARK  221  A    between atoms: _539  and  _540
REMARK  222  A    between atoms: _549  and  _551
REMARK  223  A    between atoms: _551  and  _552
REMARK  224  A    between atoms: _551  and  _554
REMARK  225  A    between atoms: _554  and  _555
REMARK                            x       y       z     vdW  Elec       q    Type
REMARK                         _______ _______ _______ _____ _____    ______ ____
ROOT
ATOM      1  O   HOH     1       9.317   7.752  19.194  0.00  0.00    +0.000 OA
ENDROOT
TORSDOF 0
REMARK  Name = ../refined-set-2016/3bva/3bva_pocket.pdb
REMARK  225 active torsions:
REMARK  status: ('A' for Active; 'I' for Inactive)
REMARK    1  A    between atoms: _1  and  _3
REMARK    2  A    between atoms: _3  and  _4
REMARK    3  A    between atoms: _3  and  _6
REMARK    4  A    between atoms: _6  and  _7
REMARK    5  A    between atoms: _7  and  _8
REMARK    6  A    between atoms: _8  and  _9
REMARK    7  A    between atoms: _18  and  _20
REMARK    8  A    between atoms: _20  and  _21
REMARK    9  A    between atoms: _20  and  _23
REMARK   10  A    between atoms: _23  and  _24
REMARK   11  A    between atoms: _27  and  _29
REMARK   12  A    between atoms: _29  and  _30
REMARK   13  A    between atoms: _29  and  _32
REMARK   14  A    between atoms: _32  and  _33
REMARK   15  A    between atoms: _38  and  _40
REMARK   16  A    between atoms: _40  and  _41
REMARK   17  A    between atoms: _40  and  _43
REMARK   18  A    between atoms: _43  and  _44
REMARK   19  A    between atoms: _47  and  _49
REMARK   20  A    between atoms: _49  and  _50
REMARK   21  A    between atoms: _52  and  _54
REMARK   22  A    between atoms: _54  and  _55
REMARK   23  A    between atoms: _58  and  _60
REMARK   24  A    between atoms: _60  and  _61
REMARK   25  A    between atoms: _60  and  _63
REMARK   26  A    between atoms: _63  and  _64
REMARK   27  A    between atoms: _67  and  _69
REMARK   28  A    between atoms: _69  and  _70
REMARK   29  A    between atoms: _69  and  _72
REMARK   30  A    between atoms: _72  and  _73
REMARK   31  A    between atoms: _76  and  _78
REMARK   32  A    between atoms: _78  and  _79
REMARK   33  A    between atoms: _78  and  _81
REMARK   34  A    between atoms: _81  and  _82
REMARK   35  A    between atoms: _85  and  _87
REMARK   36  A    between atoms: _87  and  _88
REMARK   37  A    between atoms: _87  and  _90
REMARK   38  A    between atoms: _93  and  _95
REMARK   39  A    between atoms: _95  and  _96
REMARK   40  A    between atoms: _95  and  _98
REMARK   41  A    between atoms: _98  and  _99
REMARK   42  A    between atoms: _99  and  _100
REMARK   43  A    between atoms: _100  and  _101
REMARK   44  A    between atoms: _101  and  _102
REMARK   45  A    between atoms: _106  and  _108
REMARK   46  A    between atoms: _108  and  _109
REMARK   47  A    between atoms: _108  and  _111
REMARK   48  A    between atoms: _111  and  _112
REMARK   49  A    between atoms: _112  and  _113
REMARK   50  A    between atoms: _115  and  _117
REMARK   51  A    between atoms: _117  and  _118
REMARK   52  A    between atoms: _117  and  _120
REMARK   53  A    between atoms: _120  and  _121
REMARK   54  A    between atoms: _124  and  _126
REMARK   55  A    between atoms: _126  and  _127
REMARK   56  A    between atoms: _129  and  _131
REMARK   57  A    between atoms: _131  and  _132
REMARK   58  A    between atoms: _134  and  _136
REMARK   59  A    between atoms: _136  and  _137
REMARK   60  A    between atoms: _136  and  _139
REMARK   61  A    between atoms: _139  and  _140
REMARK   62  A    between atoms: _143  and  _145
REMARK   63  A    between atoms: _145  and  _146
REMARK   64  A    between atoms: _148  and  _150
REMARK   65  A    between atoms: _150  and  _151
REMARK   66  A    between atoms: _153  and  _155
REMARK   67  A    between atoms: _155  and  _156
REMARK   68  A    between atoms: _155  and  _158
REMARK   69  A    between atoms: _158  and  _159
REMARK   70  A    between atoms: _165  and  _167
REMARK   71  A    between atoms: _167  and  _168
REMARK   72  A    between atoms: _167  and  _170
REMARK   73  A    between atoms: _170  and  _171
REMARK   74  A    between atoms: _174  and  _176
REMARK   75  A    between atoms: _176  and  _177
REMARK   76  A    between atoms: _176  and  _179
REMARK   77  A    between atoms: _182  and  _184
REMARK   78  A    between atoms: _184  and  _185
REMARK   79  A    between atoms: _184  and  _187
REMARK   80  A    between atoms: _187  and  _188
REMARK   81  A    between atoms: _191  and  _193
REMARK   82  A    between atoms: _193  and  _194
REMARK   83  A    between atoms: _193  and  _196
REMARK   84  A    between atoms: _196  and  _197
REMARK   85  A    between atoms: _201  and  _202
REMARK   86  A    between atoms: _207  and  _209
REMARK   87  A    between atoms: _209  and  _210
REMARK   88  A    between atoms: _209  and  _212
REMARK   89  A    between atoms: _215  and  _217
REMARK   90  A    between atoms: _217  and  _218
REMARK   91  A    between atoms: _217  and  _220
REMARK   92  A    between atoms: _220  and  _221
REMARK   93  A    between atoms: _226  and  _228
REMARK   94  A    between atoms: _228  and  _229
REMARK   95  A    between atoms: _228  and  _231
REMARK   96  A    between atoms: _231  and  _232
REMARK   97  A    between atoms: _235  and  _237
REMARK   98  A    between atoms: _237  and  _238
REMARK   99  A    between atoms: _240  and  _242
REMARK  100  A    between atoms: _242  and  _243
REMARK  101  A    between atoms: _242  and  _245
REMARK  102  A    between atoms: _245  and  _246
REMARK  103  A    between atoms: _246  and  _247
REMARK  104  A    between atoms: _247  and  _248
REMARK  105  A    between atoms: _257  and  _259
REMARK  106  A    between atoms: _259  and  _260
REMARK  107  A    between atoms: _259  and  _262
REMARK  108  A    between atoms: _262  and  _263
REMARK  109  A    between atoms: _268  and  _270
REMARK  110  A    between atoms: _270  and  _271
REMARK  111  A    between atoms: _270  and  _273
REMARK  112  A    between atoms: _273  and  _274
REMARK  113  A    between atoms: _274  and  _275
REMARK  114  A    between atoms: _275  and  _276
REMARK  115  A    between atoms: _285  and  _287
REMARK  116  A    between atoms: _287  and  _288
REMARK  117  A    between atoms: _287  and  _290
REMARK  118  A    between atoms: _290  and  _291
REMARK  119  A    between atoms: _294  and  _296
REMARK  120  A    between atoms: _296  and  _297
REMARK  121  A    between atoms: _296  and  _299
REMARK  122  A    between atoms: _299  and  _300
REMARK  123  A    between atoms: _303  and  _305
REMARK  124  A    between atoms: _305  and  _306
REMARK  125  A    between atoms: _305  and  _308
REMARK  126  A    between atoms: _308  and  _309
REMARK  127  A    between atoms: _314  and  _316
REMARK  128  A    between atoms: _316  and  _317
REMARK  129  A    between atoms: _316  and  _319
REMARK  130  A    between atoms: _319  and  _320
REMARK  131  A    between atoms: _323  and  _325
REMARK  132  A    between atoms: _325  and  _326
REMARK  133  A    between atoms: _328  and  _330
REMARK  134  A    between atoms: _330  and  _331
REMARK  135  A    between atoms: _334  and  _336
REMARK  136  A    between atoms: _336  and  _337
REMARK  137  A    between atoms: _336  and  _339
REMARK  138  A    between atoms: _339  and  _340
REMARK  139  A    between atoms: _343  and  _345
REMARK  140  A    between atoms: _345  and  _346
REMARK  141  A    between atoms: _345  and  _348
REMARK  142  A    between atoms: _348  and  _349
REMARK  143  A    between atoms: _352  and  _354
REMARK  144  A    between atoms: _354  and  _355
REMARK  145  A    between atoms: _354  and  _357
REMARK  146  A    between atoms: _357  and  _358
REMARK  147  A    between atoms: _361  and  _363
REMARK  148  A    between atoms: _363  and  _364
REMARK  149  A    between atoms: _363  and  _366
REMARK  150  A    between atoms: _369  and  _371
REMARK  151  A    between atoms: _371  and  _372
REMARK  152  A    between atoms: _371  and  _374
REMARK  153  A    between atoms: _374  and  _375
REMARK  154  A    between atoms: _375  and  _376
REMARK  155  A    between atoms: _376  and  _377
REMARK  156  A    between atoms: _377  and  _378
REMARK  157  A    between atoms: _382  and  _384
REMARK  158  A    between atoms: _384  and  _385
REMARK  159  A    between atoms: _384  and  _387
REMARK  160  A    between atoms: _387  and  _388
REMARK  161  A    between atoms: _388  and  _389
REMARK  162  A    between atoms: _391  and  _393
REMARK  163  A    between atoms: _393  and  _394
REMARK  164  A    between atoms: _393  and  _396
REMARK  165  A    between atoms: _396  and  _397
REMARK  166  A    between atoms: _400  and  _402
REMARK  167  A    between atoms: _402  and  _403
REMARK  168  A    between atoms: _405  and  _407
REMARK  169  A    between atoms: _407  and  _408
REMARK  170  A    between atoms: _410  and  _412
REMARK  171  A    between atoms: _412  and  _413
REMARK  172  A    between atoms: _412  and  _415
REMARK  173  A    between atoms: _415  and  _416
REMARK  174  A    between atoms: _419  and  _421
REMARK  175  A    between atoms: _421  and  _422
REMARK  176  A    between atoms: _424  and  _426
REMARK  177  A    between atoms: _426  and  _427
REMARK  178  A    between atoms: _429  and  _431
REMARK  179  A    between atoms: _431  and  _432
REMARK  180  A    between atoms: _431  and  _434
REMARK  181  A    between atoms: _434  and  _435
REMARK  182  A    between atoms: _441  and  _443
REMARK  183  A    between atoms: _443  and  _444
REMARK  184  A    between atoms: _443  and  _446
REMARK  185  A    between atoms: _446  and  _447
REMARK  186  A    between atoms: _450  and  _452
REMARK  187  A    between atoms: _452  and  _453
REMARK  188  A    between atoms: _452  and  _455
REMARK  189  A    between atoms: _458  and  _460
REMARK  190  A    between atoms: _460  and  _461
REMARK  191  A    between atoms: _460  and  _463
REMARK  192  A    between atoms: _463  and  _464
REMARK  193  A    between atoms: _468  and  _469
REMARK  194  A    between atoms: _474  and  _476
REMARK  195  A    between atoms: _476  and  _477
REMARK  196  A    between atoms: _476  and  _479
REMARK  197  A    between atoms: _479  and  _480
REMARK  198  A    between atoms: _484  and  _485
REMARK  199  A    between atoms: _490  and  _492
REMARK  200  A    between atoms: _492  and  _493
REMARK  201  A    between atoms: _492  and  _495
REMARK  202  A    between atoms: _498  and  _500
REMARK  203  A    between atoms: _500  and  _501
REMARK  204  A    between atoms: _500  and  _503
REMARK  205  A    between atoms: _503  and  _504
REMARK  206  A    between atoms: _509  and  _511
REMARK  207  A    between atoms: _511  and  _512
REMARK  208  A    between atoms: _511  and  _514
REMARK  209  A    between atoms: _514  and  _515
REMARK  210  A    between atoms: _518  and  _520
REMARK  211  A    between atoms: _520  and  _521
REMARK  212  A    between atoms: _520  and  _523
REMARK  213  A    between atoms: _523  and  _524
REMARK  214  A    between atoms: _527  and  _529
REMARK  215  A    between atoms: _529  and  _530
REMARK  216  A    between atoms: _532  and  _534
REMARK  217  A    between atoms: _534  and  _535
REMARK  218  A    between atoms: _534  and  _537
REMARK  219  A    between atoms: _537  and  _538
REMARK  220  A    between atoms: _538  and  _539
REMARK  221  A    between atoms: _539  and  _540
REMARK  222  A    between atoms: _549  and  _551
REMARK  223  A    between atoms: _551  and  _552
REMARK  224  A    between atoms: _551  and  _554
REMARK  225  A    between atoms: _554  and  _555
REMARK                            x       y       z     vdW  Elec       q    Type
REMARK                         _______ _______ _______ _____ _____    ______ ____
ROOT
ATOM      1  O   HOH     1      16.736  15.478   9.863  0.00  0.00    +0.000 OA
ENDROOT
TORSDOF 0
REMARK  Name = ../refined-set-2016/3bva/3bva_pocket.pdb
REMARK  225 active torsions:
REMARK  status: ('A' for Active; 'I' for Inactive)
REMARK    1  A    between atoms: _1  and  _3
REMARK    2  A    between atoms: _3  and  _4
REMARK    3  A    between atoms: _3  and  _6
REMARK    4  A    between atoms: _6  and  _7
REMARK    5  A    between atoms: _7  and  _8
REMARK    6  A    between atoms: _8  and  _9
REMARK    7  A    between atoms: _18  and  _20
REMARK    8  A    between atoms: _20  and  _21
REMARK    9  A    between atoms: _20  and  _23
REMARK   10  A    between atoms: _23  and  _24
REMARK   11  A    between atoms: _27  and  _29
REMARK   12  A    between atoms: _29  and  _30
REMARK   13  A    between atoms: _29  and  _32
REMARK   14  A    between atoms: _32  and  _33
REMARK   15  A    between atoms: _38  and  _40
REMARK   16  A    between atoms: _40  and  _41
REMARK   17  A    between atoms: _40  and  _43
REMARK   18  A    between atoms: _43  and  _44
REMARK   19  A    between atoms: _47  and  _49
REMARK   20  A    between atoms: _49  and  _50
REMARK   21  A    between atoms: _52  and  _54
REMARK   22  A    between atoms: _54  and  _55
REMARK   23  A    between atoms: _58  and  _60
REMARK   24  A    between atoms: _60  and  _61
REMARK   25  A    between atoms: _60  and  _63
REMARK   26  A    between atoms: _63  and  _64
REMARK   27  A    between atoms: _67  and  _69
REMARK   28  A    between atoms: _69  and  _70
REMARK   29  A    between atoms: _69  and  _72
REMARK   30  A    between atoms: _72  and  _73
REMARK   31  A    between atoms: _76  and  _78
REMARK   32  A    between atoms: _78  and  _79
REMARK   33  A    between atoms: _78  and  _81
REMARK   34  A    between atoms: _81  and  _82
REMARK   35  A    between atoms: _85  and  _87
REMARK   36  A    between atoms: _87  and  _88
REMARK   37  A    between atoms: _87  and  _90
REMARK   38  A    between atoms: _93  and  _95
REMARK   39  A    between atoms: _95  and  _96
REMARK   40  A    between atoms: _95  and  _98
REMARK   41  A    between atoms: _98  and  _99
REMARK   42  A    between atoms: _99  and  _100
REMARK   43  A    between atoms: _100  and  _101
REMARK   44  A    between atoms: _101  and  _102
REMARK   45  A    between atoms: _106  and  _108
REMARK   46  A    between atoms: _108  and  _109
REMARK   47  A    between atoms: _108  and  _111
REMARK   48  A    between atoms: _111  and  _112
REMARK   49  A    between atoms: _112  and  _113
REMARK   50  A    between atoms: _115  and  _117
REMARK   51  A    between atoms: _117  and  _118
REMARK   52  A    between atoms: _117  and  _120
REMARK   53  A    between atoms: _120  and  _121
REMARK   54  A    between atoms: _124  and  _126
REMARK   55  A    between atoms: _126  and  _127
REMARK   56  A    between atoms: _129  and  _131
REMARK   57  A    between atoms: _131  and  _132
REMARK   58  A    between atoms: _134  and  _136
REMARK   59  A    between atoms: _136  and  _137
REMARK   60  A    between atoms: _136  and  _139
REMARK   61  A    between atoms: _139  and  _140
REMARK   62  A    between atoms: _143  and  _145
REMARK   63  A    between atoms: _145  and  _146
REMARK   64  A    between atoms: _148  and  _150
REMARK   65  A    between atoms: _150  and  _151
REMARK   66  A    between atoms: _153  and  _155
REMARK   67  A    between atoms: _155  and  _156
REMARK   68  A    between atoms: _155  and  _158
REMARK   69  A    between atoms: _158  and  _159
REMARK   70  A    between atoms: _165  and  _167
REMARK   71  A    between atoms: _167  and  _168
REMARK   72  A    between atoms: _167  and  _170
REMARK   73  A    between atoms: _170  and  _171
REMARK   74  A    between atoms: _174  and  _176
REMARK   75  A    between atoms: _176  and  _177
REMARK   76  A    between atoms: _176  and  _179
REMARK   77  A    between atoms: _182  and  _184
REMARK   78  A    between atoms: _184  and  _185
REMARK   79  A    between atoms: _184  and  _187
REMARK   80  A    between atoms: _187  and  _188
REMARK   81  A    between atoms: _191  and  _193
REMARK   82  A    between atoms: _193  and  _194
REMARK   83  A    between atoms: _193  and  _196
REMARK   84  A    between atoms: _196  and  _197
REMARK   85  A    between atoms: _201  and  _202
REMARK   86  A    between atoms: _207  and  _209
REMARK   87  A    between atoms: _209  and  _210
REMARK   88  A    between atoms: _209  and  _212
REMARK   89  A    between atoms: _215  and  _217
REMARK   90  A    between atoms: _217  and  _218
REMARK   91  A    between atoms: _217  and  _220
REMARK   92  A    between atoms: _220  and  _221
REMARK   93  A    between atoms: _226  and  _228
REMARK   94  A    between atoms: _228  and  _229
REMARK   95  A    between atoms: _228  and  _231
REMARK   96  A    between atoms: _231  and  _232
REMARK   97  A    between atoms: _235  and  _237
REMARK   98  A    between atoms: _237  and  _238
REMARK   99  A    between atoms: _240  and  _242
REMARK  100  A    between atoms: _242  and  _243
REMARK  101  A    between atoms: _242  and  _245
REMARK  102  A    between atoms: _245  and  _246
REMARK  103  A    between atoms: _246  and  _247
REMARK  104  A    between atoms: _247  and  _248
REMARK  105  A    between atoms: _257  and  _259
REMARK  106  A    between atoms: _259  and  _260
REMARK  107  A    between atoms: _259  and  _262
REMARK  108  A    between atoms: _262  and  _263
REMARK  109  A    between atoms: _268  and  _270
REMARK  110  A    between atoms: _270  and  _271
REMARK  111  A    between atoms: _270  and  _273
REMARK  112  A    between atoms: _273  and  _274
REMARK  113  A    between atoms: _274  and  _275
REMARK  114  A    between atoms: _275  and  _276
REMARK  115  A    between atoms: _285  and  _287
REMARK  116  A    between atoms: _287  and  _288
REMARK  117  A    between atoms: _287  and  _290
REMARK  118  A    between atoms: _290  and  _291
REMARK  119  A    between atoms: _294  and  _296
REMARK  120  A    between atoms: _296  and  _297
REMARK  121  A    between atoms: _296  and  _299
REMARK  122  A    between atoms: _299  and  _300
REMARK  123  A    between atoms: _303  and  _305
REMARK  124  A    between atoms: _305  and  _306
REMARK  125  A    between atoms: _305  and  _308
REMARK  126  A    between atoms: _308  and  _309
REMARK  127  A    between atoms: _314  and  _316
REMARK  128  A    between atoms: _316  and  _317
REMARK  129  A    between atoms: _316  and  _319
REMARK  130  A    between atoms: _319  and  _320
REMARK  131  A    between atoms: _323  and  _325
REMARK  132  A    between atoms: _325  and  _326
REMARK  133  A    between atoms: _328  and  _330
REMARK  134  A    between atoms: _330  and  _331
REMARK  135  A    between atoms: _334  and  _336
REMARK  136  A    between atoms: _336  and  _337
REMARK  137  A    between atoms: _336  and  _339
REMARK  138  A    between atoms: _339  and  _340
REMARK  139  A    between atoms: _343  and  _345
REMARK  140  A    between atoms: _345  and  _346
REMARK  141  A    between atoms: _345  and  _348
REMARK  142  A    between atoms: _348  and  _349
REMARK  143  A    between atoms: _352  and  _354
REMARK  144  A    between atoms: _354  and  _355
REMARK  145  A    between atoms: _354  and  _357
REMARK  146  A    between atoms: _357  and  _358
REMARK  147  A    between atoms: _361  and  _363
REMARK  148  A    between atoms: _363  and  _364
REMARK  149  A    between atoms: _363  and  _366
REMARK  150  A    between atoms: _369  and  _371
REMARK  151  A    between atoms: _371  and  _372
REMARK  152  A    between atoms: _371  and  _374
REMARK  153  A    between atoms: _374  and  _375
REMARK  154  A    between atoms: _375  and  _376
REMARK  155  A    between atoms: _376  and  _377
REMARK  156  A    between atoms: _377  and  _378
REMARK  157  A    between atoms: _382  and  _384
REMARK  158  A    between atoms: _384  and  _385
REMARK  159  A    between atoms: _384  and  _387
REMARK  160  A    between atoms: _387  and  _388
REMARK  161  A    between atoms: _388  and  _389
REMARK  162  A    between atoms: _391  and  _393
REMARK  163  A    between atoms: _393  and  _394
REMARK  164  A    between atoms: _393  and  _396
REMARK  165  A    between atoms: _396  and  _397
REMARK  166  A    between atoms: _400  and  _402
REMARK  167  A    between atoms: _402  and  _403
REMARK  168  A    between atoms: _405  and  _407
REMARK  169  A    between atoms: _407  and  _408
REMARK  170  A    between atoms: _410  and  _412
REMARK  171  A    between atoms: _412  and  _413
REMARK  172  A    between atoms: _412  and  _415
REMARK  173  A    between atoms: _415  and  _416
REMARK  174  A    between atoms: _419  and  _421
REMARK  175  A    between atoms: _421  and  _422
REMARK  176  A    between atoms: _424  and  _426
REMARK  177  A    between atoms: _426  and  _427
REMARK  178  A    between atoms: _429  and  _431
REMARK  179  A    between atoms: _431  and  _432
REMARK  180  A    between atoms: _431  and  _434
REMARK  181  A    between atoms: _434  and  _435
REMARK  182  A    between atoms: _441  and  _443
REMARK  183  A    between atoms: _443  and  _444
REMARK  184  A    between atoms: _443  and  _446
REMARK  185  A    between atoms: _446  and  _447
REMARK  186  A    between atoms: _450  and  _452
REMARK  187  A    between atoms: _452  and  _453
REMARK  188  A    between atoms: _452  and  _455
REMARK  189  A    between atoms: _458  and  _460
REMARK  190  A    between atoms: _460  and  _461
REMARK  191  A    between atoms: _460  and  _463
REMARK  192  A    between atoms: _463  and  _464
REMARK  193  A    between atoms: _468  and  _469
REMARK  194  A    between atoms: _474  and  _476
REMARK  195  A    between atoms: _476  and  _477
REMARK  196  A    between atoms: _476  and  _479
REMARK  197  A    between atoms: _479  and  _480
REMARK  198  A    between atoms: _484  and  _485
REMARK  199  A    between atoms: _490  and  _492
REMARK  200  A    between atoms: _492  and  _493
REMARK  201  A    between atoms: _492  and  _495
REMARK  202  A    between atoms: _498  and  _500
REMARK  203  A    between atoms: _500  and  _501
REMARK  204  A    between atoms: _500  and  _503
REMARK  205  A    between atoms: _503  and  _504
REMARK  206  A    between atoms: _509  and  _511
REMARK  207  A    between atoms: _511  and  _512
REMARK  208  A    between atoms: _511  and  _514
REMARK  209  A    between atoms: _514  and  _515
REMARK  210  A    between atoms: _518  and  _520
REMARK  211  A    between atoms: _520  and  _521
REMARK  212  A    between atoms: _520  and  _523
REMARK  213  A    between atoms: _523  and  _524
REMARK  214  A    between atoms: _527  and  _529
REMARK  215  A    between atoms: _529  and  _530
REMARK  216  A    between atoms: _532  and  _534
REMARK  217  A    between atoms: _534  and  _535
REMARK  218  A    between atoms: _534  and  _537
REMARK  219  A    between atoms: _537  and  _538
REMARK  220  A    between atoms: _538  and  _539
REMARK  221  A    between atoms: _539  and  _540
REMARK  222  A    between atoms: _549  and  _551
REMARK  223  A    between atoms: _551  and  _552
REMARK  224  A    between atoms: _551  and  _554
REMARK  225  A    between atoms: _554  and  _555
REMARK                            x       y       z     vdW  Elec       q    Type
REMARK                         _______ _______ _______ _____ _____    ______ ____
ROOT
ATOM      1  O   HOH     1       9.301  12.495  18.557  0.00  0.00    +0.000 OA
ENDROOT
TORSDOF 0
REMARK  Name = ../refined-set-2016/3bva/3bva_pocket.pdb
REMARK  225 active torsions:
REMARK  status: ('A' for Active; 'I' for Inactive)
REMARK    1  A    between atoms: _1  and  _3
REMARK    2  A    between atoms: _3  and  _4
REMARK    3  A    between atoms: _3  and  _6
REMARK    4  A    between atoms: _6  and  _7
REMARK    5  A    between atoms: _7  and  _8
REMARK    6  A    between atoms: _8  and  _9
REMARK    7  A    between atoms: _18  and  _20
REMARK    8  A    between atoms: _20  and  _21
REMARK    9  A    between atoms: _20  and  _23
REMARK   10  A    between atoms: _23  and  _24
REMARK   11  A    between atoms: _27  and  _29
REMARK   12  A    between atoms: _29  and  _30
REMARK   13  A    between atoms: _29  and  _32
REMARK   14  A    between atoms: _32  and  _33
REMARK   15  A    between atoms: _38  and  _40
REMARK   16  A    between atoms: _40  and  _41
REMARK   17  A    between atoms: _40  and  _43
REMARK   18  A    between atoms: _43  and  _44
REMARK   19  A    between atoms: _47  and  _49
REMARK   20  A    between atoms: _49  and  _50
REMARK   21  A    between atoms: _52  and  _54
REMARK   22  A    between atoms: _54  and  _55
REMARK   23  A    between atoms: _58  and  _60
REMARK   24  A    between atoms: _60  and  _61
REMARK   25  A    between atoms: _60  and  _63
REMARK   26  A    between atoms: _63  and  _64
REMARK   27  A    between atoms: _67  and  _69
REMARK   28  A    between atoms: _69  and  _70
REMARK   29  A    between atoms: _69  and  _72
REMARK   30  A    between atoms: _72  and  _73
REMARK   31  A    between atoms: _76  and  _78
REMARK   32  A    between atoms: _78  and  _79
REMARK   33  A    between atoms: _78  and  _81
REMARK   34  A    between atoms: _81  and  _82
REMARK   35  A    between atoms: _85  and  _87
REMARK   36  A    between atoms: _87  and  _88
REMARK   37  A    between atoms: _87  and  _90
REMARK   38  A    between atoms: _93  and  _95
REMARK   39  A    between atoms: _95  and  _96
REMARK   40  A    between atoms: _95  and  _98
REMARK   41  A    between atoms: _98  and  _99
REMARK   42  A    between atoms: _99  and  _100
REMARK   43  A    between atoms: _100  and  _101
REMARK   44  A    between atoms: _101  and  _102
REMARK   45  A    between atoms: _106  and  _108
REMARK   46  A    between atoms: _108  and  _109
REMARK   47  A    between atoms: _108  and  _111
REMARK   48  A    between atoms: _111  and  _112
REMARK   49  A    between atoms: _112  and  _113
REMARK   50  A    between atoms: _115  and  _117
REMARK   51  A    between atoms: _117  and  _118
REMARK   52  A    between atoms: _117  and  _120
REMARK   53  A    between atoms: _120  and  _121
REMARK   54  A    between atoms: _124  and  _126
REMARK   55  A    between atoms: _126  and  _127
REMARK   56  A    between atoms: _129  and  _131
REMARK   57  A    between atoms: _131  and  _132
REMARK   58  A    between atoms: _134  and  _136
REMARK   59  A    between atoms: _136  and  _137
REMARK   60  A    between atoms: _136  and  _139
REMARK   61  A    between atoms: _139  and  _140
REMARK   62  A    between atoms: _143  and  _145
REMARK   63  A    between atoms: _145  and  _146
REMARK   64  A    between atoms: _148  and  _150
REMARK   65  A    between atoms: _150  and  _151
REMARK   66  A    between atoms: _153  and  _155
REMARK   67  A    between atoms: _155  and  _156
REMARK   68  A    between atoms: _155  and  _158
REMARK   69  A    between atoms: _158  and  _159
REMARK   70  A    between atoms: _165  and  _167
REMARK   71  A    between atoms: _167  and  _168
REMARK   72  A    between atoms: _167  and  _170
REMARK   73  A    between atoms: _170  and  _171
REMARK   74  A    between atoms: _174  and  _176
REMARK   75  A    between atoms: _176  and  _177
REMARK   76  A    between atoms: _176  and  _179
REMARK   77  A    between atoms: _182  and  _184
REMARK   78  A    between atoms: _184  and  _185
REMARK   79  A    between atoms: _184  and  _187
REMARK   80  A    between atoms: _187  and  _188
REMARK   81  A    between atoms: _191  and  _193
REMARK   82  A    between atoms: _193  and  _194
REMARK   83  A    between atoms: _193  and  _196
REMARK   84  A    between atoms: _196  and  _197
REMARK   85  A    between atoms: _201  and  _202
REMARK   86  A    between atoms: _207  and  _209
REMARK   87  A    between atoms: _209  and  _210
REMARK   88  A    between atoms: _209  and  _212
REMARK   89  A    between atoms: _215  and  _217
REMARK   90  A    between atoms: _217  and  _218
REMARK   91  A    between atoms: _217  and  _220
REMARK   92  A    between atoms: _220  and  _221
REMARK   93  A    between atoms: _226  and  _228
REMARK   94  A    between atoms: _228  and  _229
REMARK   95  A    between atoms: _228  and  _231
REMARK   96  A    between atoms: _231  and  _232
REMARK   97  A    between atoms: _235  and  _237
REMARK   98  A    between atoms: _237  and  _238
REMARK   99  A    between atoms: _240  and  _242
REMARK  100  A    between atoms: _242  and  _243
REMARK  101  A    between atoms: _242  and  _245
REMARK  102  A    between atoms: _245  and  _246
REMARK  103  A    between atoms: _246  and  _247
REMARK  104  A    between atoms: _247  and  _248
REMARK  105  A    between atoms: _257  and  _259
REMARK  106  A    between atoms: _259  and  _260
REMARK  107  A    between atoms: _259  and  _262
REMARK  108  A    between atoms: _262  and  _263
REMARK  109  A    between atoms: _268  and  _270
REMARK  110  A    between atoms: _270  and  _271
REMARK  111  A    between atoms: _270  and  _273
REMARK  112  A    between atoms: _273  and  _274
REMARK  113  A    between atoms: _274  and  _275
REMARK  114  A    between atoms: _275  and  _276
REMARK  115  A    between atoms: _285  and  _287
REMARK  116  A    between atoms: _287  and  _288
REMARK  117  A    between atoms: _287  and  _290
REMARK  118  A    between atoms: _290  and  _291
REMARK  119  A    between atoms: _294  and  _296
REMARK  120  A    between atoms: _296  and  _297
REMARK  121  A    between atoms: _296  and  _299
REMARK  122  A    between atoms: _299  and  _300
REMARK  123  A    between atoms: _303  and  _305
REMARK  124  A    between atoms: _305  and  _306
REMARK  125  A    between atoms: _305  and  _308
REMARK  126  A    between atoms: _308  and  _309
REMARK  127  A    between atoms: _314  and  _316
REMARK  128  A    between atoms: _316  and  _317
REMARK  129  A    between atoms: _316  and  _319
REMARK  130  A    between atoms: _319  and  _320
REMARK  131  A    between atoms: _323  and  _325
REMARK  132  A    between atoms: _325  and  _326
REMARK  133  A    between atoms: _328  and  _330
REMARK  134  A    between atoms: _330  and  _331
REMARK  135  A    between atoms: _334  and  _336
REMARK  136  A    between atoms: _336  and  _337
REMARK  137  A    between atoms: _336  and  _339
REMARK  138  A    between atoms: _339  and  _340
REMARK  139  A    between atoms: _343  and  _345
REMARK  140  A    between atoms: _345  and  _346
REMARK  141  A    between atoms: _345  and  _348
REMARK  142  A    between atoms: _348  and  _349
REMARK  143  A    between atoms: _352  and  _354
REMARK  144  A    between atoms: _354  and  _355
REMARK  145  A    between atoms: _354  and  _357
REMARK  146  A    between atoms: _357  and  _358
REMARK  147  A    between atoms: _361  and  _363
REMARK  148  A    between atoms: _363  and  _364
REMARK  149  A    between atoms: _363  and  _366
REMARK  150  A    between atoms: _369  and  _371
REMARK  151  A    between atoms: _371  and  _372
REMARK  152  A    between atoms: _371  and  _374
REMARK  153  A    between atoms: _374  and  _375
REMARK  154  A    between atoms: _375  and  _376
REMARK  155  A    between atoms: _376  and  _377
REMARK  156  A    between atoms: _377  and  _378
REMARK  157  A    between atoms: _382  and  _384
REMARK  158  A    between atoms: _384  and  _385
REMARK  159  A    between atoms: _384  and  _387
REMARK  160  A    between atoms: _387  and  _388
REMARK  161  A    between atoms: _388  and  _389
REMARK  162  A    between atoms: _391  and  _393
REMARK  163  A    between atoms: _393  and  _394
REMARK  164  A    between atoms: _393  and  _396
REMARK  165  A    between atoms: _396  and  _397
REMARK  166  A    between atoms: _400  and  _402
REMARK  167  A    between atoms: _402  and  _403
REMARK  168  A    between atoms: _405  and  _407
REMARK  169  A    between atoms: _407  and  _408
REMARK  170  A    between atoms: _410  and  _412
REMARK  171  A    between atoms: _412  and  _413
REMARK  172  A    between atoms: _412  and  _415
REMARK  173  A    between atoms: _415  and  _416
REMARK  174  A    between atoms: _419  and  _421
REMARK  175  A    between atoms: _421  and  _422
REMARK  176  A    between atoms: _424  and  _426
REMARK  177  A    between atoms: _426  and  _427
REMARK  178  A    between atoms: _429  and  _431
REMARK  179  A    between atoms: _431  and  _432
REMARK  180  A    between atoms: _431  and  _434
REMARK  181  A    between atoms: _434  and  _435
REMARK  182  A    between atoms: _441  and  _443
REMARK  183  A    between atoms: _443  and  _444
REMARK  184  A    between atoms: _443  and  _446
REMARK  185  A    between atoms: _446  and  _447
REMARK  186  A    between atoms: _450  and  _452
REMARK  187  A    between atoms: _452  and  _453
REMARK  188  A    between atoms: _452  and  _455
REMARK  189  A    between atoms: _458  and  _460
REMARK  190  A    between atoms: _460  and  _461
REMARK  191  A    between atoms: _460  and  _463
REMARK  192  A    between atoms: _463  and  _464
REMARK  193  A    between atoms: _468  and  _469
REMARK  194  A    between atoms: _474  and  _476
REMARK  195  A    between atoms: _476  and  _477
REMARK  196  A    between atoms: _476  and  _479
REMARK  197  A    between atoms: _479  and  _480
REMARK  198  A    between atoms: _484  and  _485
REMARK  199  A    between atoms: _490  and  _492
REMARK  200  A    between atoms: _492  and  _493
REMARK  201  A    between atoms: _492  and  _495
REMARK  202  A    between atoms: _498  and  _500
REMARK  203  A    between atoms: _500  and  _501
REMARK  204  A    between atoms: _500  and  _503
REMARK  205  A    between atoms: _503  and  _504
REMARK  206  A    between atoms: _509  and  _511
REMARK  207  A    between atoms: _511  and  _512
REMARK  208  A    between atoms: _511  and  _514
REMARK  209  A    between atoms: _514  and  _515
REMARK  210  A    between atoms: _518  and  _520
REMARK  211  A    between atoms: _520  and  _521
REMARK  212  A    between atoms: _520  and  _523
REMARK  213  A    between atoms: _523  and  _524
REMARK  214  A    between atoms: _527  and  _529
REMARK  215  A    between atoms: _529  and  _530
REMARK  216  A    between atoms: _532  and  _534
REMARK  217  A    between atoms: _534  and  _535
REMARK  218  A    between atoms: _534  and  _537
REMARK  219  A    between atoms: _537  and  _538
REMARK  220  A    between atoms: _538  and  _539
REMARK  221  A    between atoms: _539  and  _540
REMARK  222  A    between atoms: _549  and  _551
REMARK  223  A    between atoms: _551  and  _552
REMARK  224  A    between atoms: _551  and  _554
REMARK  225  A    between atoms: _554  and  _555
REMARK                            x       y       z     vdW  Elec       q    Type
REMARK                         _______ _______ _______ _____ _____    ______ ____
ROOT
ATOM      1  O   HOH     1       4.171  19.226  22.952  0.00  0.00    +0.000 OA
ENDROOT
TORSDOF 0
REMARK  Name = ../refined-set-2016/3bva/3bva_pocket.pdb
REMARK  225 active torsions:
REMARK  status: ('A' for Active; 'I' for Inactive)
REMARK    1  A    between atoms: _1  and  _3
REMARK    2  A    between atoms: _3  and  _4
REMARK    3  A    between atoms: _3  and  _6
REMARK    4  A    between atoms: _6  and  _7
REMARK    5  A    between atoms: _7  and  _8
REMARK    6  A    between atoms: _8  and  _9
REMARK    7  A    between atoms: _18  and  _20
REMARK    8  A    between atoms: _20  and  _21
REMARK    9  A    between atoms: _20  and  _23
REMARK   10  A    between atoms: _23  and  _24
REMARK   11  A    between atoms: _27  and  _29
REMARK   12  A    between atoms: _29  and  _30
REMARK   13  A    between atoms: _29  and  _32
REMARK   14  A    between atoms: _32  and  _33
REMARK   15  A    between atoms: _38  and  _40
REMARK   16  A    between atoms: _40  and  _41
REMARK   17  A    between atoms: _40  and  _43
REMARK   18  A    between atoms: _43  and  _44
REMARK   19  A    between atoms: _47  and  _49
REMARK   20  A    between atoms: _49  and  _50
REMARK   21  A    between atoms: _52  and  _54
REMARK   22  A    between atoms: _54  and  _55
REMARK   23  A    between atoms: _58  and  _60
REMARK   24  A    between atoms: _60  and  _61
REMARK   25  A    between atoms: _60  and  _63
REMARK   26  A    between atoms: _63  and  _64
REMARK   27  A    between atoms: _67  and  _69
REMARK   28  A    between atoms: _69  and  _70
REMARK   29  A    between atoms: _69  and  _72
REMARK   30  A    between atoms: _72  and  _73
REMARK   31  A    between atoms: _76  and  _78
REMARK   32  A    between atoms: _78  and  _79
REMARK   33  A    between atoms: _78  and  _81
REMARK   34  A    between atoms: _81  and  _82
REMARK   35  A    between atoms: _85  and  _87
REMARK   36  A    between atoms: _87  and  _88
REMARK   37  A    between atoms: _87  and  _90
REMARK   38  A    between atoms: _93  and  _95
REMARK   39  A    between atoms: _95  and  _96
REMARK   40  A    between atoms: _95  and  _98
REMARK   41  A    between atoms: _98  and  _99
REMARK   42  A    between atoms: _99  and  _100
REMARK   43  A    between atoms: _100  and  _101
REMARK   44  A    between atoms: _101  and  _102
REMARK   45  A    between atoms: _106  and  _108
REMARK   46  A    between atoms: _108  and  _109
REMARK   47  A    between atoms: _108  and  _111
REMARK   48  A    between atoms: _111  and  _112
REMARK   49  A    between atoms: _112  and  _113
REMARK   50  A    between atoms: _115  and  _117
REMARK   51  A    between atoms: _117  and  _118
REMARK   52  A    between atoms: _117  and  _120
REMARK   53  A    between atoms: _120  and  _121
REMARK   54  A    between atoms: _124  and  _126
REMARK   55  A    between atoms: _126  and  _127
REMARK   56  A    between atoms: _129  and  _131
REMARK   57  A    between atoms: _131  and  _132
REMARK   58  A    between atoms: _134  and  _136
REMARK   59  A    between atoms: _136  and  _137
REMARK   60  A    between atoms: _136  and  _139
REMARK   61  A    between atoms: _139  and  _140
REMARK   62  A    between atoms: _143  and  _145
REMARK   63  A    between atoms: _145  and  _146
REMARK   64  A    between atoms: _148  and  _150
REMARK   65  A    between atoms: _150  and  _151
REMARK   66  A    between atoms: _153  and  _155
REMARK   67  A    between atoms: _155  and  _156
REMARK   68  A    between atoms: _155  and  _158
REMARK   69  A    between atoms: _158  and  _159
REMARK   70  A    between atoms: _165  and  _167
REMARK   71  A    between atoms: _167  and  _168
REMARK   72  A    between atoms: _167  and  _170
REMARK   73  A    between atoms: _170  and  _171
REMARK   74  A    between atoms: _174  and  _176
REMARK   75  A    between atoms: _176  and  _177
REMARK   76  A    between atoms: _176  and  _179
REMARK   77  A    between atoms: _182  and  _184
REMARK   78  A    between atoms: _184  and  _185
REMARK   79  A    between atoms: _184  and  _187
REMARK   80  A    between atoms: _187  and  _188
REMARK   81  A    between atoms: _191  and  _193
REMARK   82  A    between atoms: _193  and  _194
REMARK   83  A    between atoms: _193  and  _196
REMARK   84  A    between atoms: _196  and  _197
REMARK   85  A    between atoms: _201  and  _202
REMARK   86  A    between atoms: _207  and  _209
REMARK   87  A    between atoms: _209  and  _210
REMARK   88  A    between atoms: _209  and  _212
REMARK   89  A    between atoms: _215  and  _217
REMARK   90  A    between atoms: _217  and  _218
REMARK   91  A    between atoms: _217  and  _220
REMARK   92  A    between atoms: _220  and  _221
REMARK   93  A    between atoms: _226  and  _228
REMARK   94  A    between atoms: _228  and  _229
REMARK   95  A    between atoms: _228  and  _231
REMARK   96  A    between atoms: _231  and  _232
REMARK   97  A    between atoms: _235  and  _237
REMARK   98  A    between atoms: _237  and  _238
REMARK   99  A    between atoms: _240  and  _242
REMARK  100  A    between atoms: _242  and  _243
REMARK  101  A    between atoms: _242  and  _245
REMARK  102  A    between atoms: _245  and  _246
REMARK  103  A    between atoms: _246  and  _247
REMARK  104  A    between atoms: _247  and  _248
REMARK  105  A    between atoms: _257  and  _259
REMARK  106  A    between atoms: _259  and  _260
REMARK  107  A    between atoms: _259  and  _262
REMARK  108  A    between atoms: _262  and  _263
REMARK  109  A    between atoms: _268  and  _270
REMARK  110  A    between atoms: _270  and  _271
REMARK  111  A    between atoms: _270  and  _273
REMARK  112  A    between atoms: _273  and  _274
REMARK  113  A    between atoms: _274  and  _275
REMARK  114  A    between atoms: _275  and  _276
REMARK  115  A    between atoms: _285  and  _287
REMARK  116  A    between atoms: _287  and  _288
REMARK  117  A    between atoms: _287  and  _290
REMARK  118  A    between atoms: _290  and  _291
REMARK  119  A    between atoms: _294  and  _296
REMARK  120  A    between atoms: _296  and  _297
REMARK  121  A    between atoms: _296  and  _299
REMARK  122  A    between atoms: _299  and  _300
REMARK  123  A    between atoms: _303  and  _305
REMARK  124  A    between atoms: _305  and  _306
REMARK  125  A    between atoms: _305  and  _308
REMARK  126  A    between atoms: _308  and  _309
REMARK  127  A    between atoms: _314  and  _316
REMARK  128  A    between atoms: _316  and  _317
REMARK  129  A    between atoms: _316  and  _319
REMARK  130  A    between atoms: _319  and  _320
REMARK  131  A    between atoms: _323  and  _325
REMARK  132  A    between atoms: _325  and  _326
REMARK  133  A    between atoms: _328  and  _330
REMARK  134  A    between atoms: _330  and  _331
REMARK  135  A    between atoms: _334  and  _336
REMARK  136  A    between atoms: _336  and  _337
REMARK  137  A    between atoms: _336  and  _339
REMARK  138  A    between atoms: _339  and  _340
REMARK  139  A    between atoms: _343  and  _345
REMARK  140  A    between atoms: _345  and  _346
REMARK  141  A    between atoms: _345  and  _348
REMARK  142  A    between atoms: _348  and  _349
REMARK  143  A    between atoms: _352  and  _354
REMARK  144  A    between atoms: _354  and  _355
REMARK  145  A    between atoms: _354  and  _357
REMARK  146  A    between atoms: _357  and  _358
REMARK  147  A    between atoms: _361  and  _363
REMARK  148  A    between atoms: _363  and  _364
REMARK  149  A    between atoms: _363  and  _366
REMARK  150  A    between atoms: _369  and  _371
REMARK  151  A    between atoms: _371  and  _372
REMARK  152  A    between atoms: _371  and  _374
REMARK  153  A    between atoms: _374  and  _375
REMARK  154  A    between atoms: _375  and  _376
REMARK  155  A    between atoms: _376  and  _377
REMARK  156  A    between atoms: _377  and  _378
REMARK  157  A    between atoms: _382  and  _384
REMARK  158  A    between atoms: _384  and  _385
REMARK  159  A    between atoms: _384  and  _387
REMARK  160  A    between atoms: _387  and  _388
REMARK  161  A    between atoms: _388  and  _389
REMARK  162  A    between atoms: _391  and  _393
REMARK  163  A    between atoms: _393  and  _394
REMARK  164  A    between atoms: _393  and  _396
REMARK  165  A    between atoms: _396  and  _397
REMARK  166  A    between atoms: _400  and  _402
REMARK  167  A    between atoms: _402  and  _403
REMARK  168  A    between atoms: _405  and  _407
REMARK  169  A    between atoms: _407  and  _408
REMARK  170  A    between atoms: _410  and  _412
REMARK  171  A    between atoms: _412  and  _413
REMARK  172  A    between atoms: _412  and  _415
REMARK  173  A    between atoms: _415  and  _416
REMARK  174  A    between atoms: _419  and  _421
REMARK  175  A    between atoms: _421  and  _422
REMARK  176  A    between atoms: _424  and  _426
REMARK  177  A    between atoms: _426  and  _427
REMARK  178  A    between atoms: _429  and  _431
REMARK  179  A    between atoms: _431  and  _432
REMARK  180  A    between atoms: _431  and  _434
REMARK  181  A    between atoms: _434  and  _435
REMARK  182  A    between atoms: _441  and  _443
REMARK  183  A    between atoms: _443  and  _444
REMARK  184  A    between atoms: _443  and  _446
REMARK  185  A    between atoms: _446  and  _447
REMARK  186  A    between atoms: _450  and  _452
REMARK  187  A    between atoms: _452  and  _453
REMARK  188  A    between atoms: _452  and  _455
REMARK  189  A    between atoms: _458  and  _460
REMARK  190  A    between atoms: _460  and  _461
REMARK  191  A    between atoms: _460  and  _463
REMARK  192  A    between atoms: _463  and  _464
REMARK  193  A    between atoms: _468  and  _469
REMARK  194  A    between atoms: _474  and  _476
REMARK  195  A    between atoms: _476  and  _477
REMARK  196  A    between atoms: _476  and  _479
REMARK  197  A    between atoms: _479  and  _480
REMARK  198  A    between atoms: _484  and  _485
REMARK  199  A    between atoms: _490  and  _492
REMARK  200  A    between atoms: _492  and  _493
REMARK  201  A    between atoms: _492  and  _495
REMARK  202  A    between atoms: _498  and  _500
REMARK  203  A    between atoms: _500  and  _501
REMARK  204  A    between atoms: _500  and  _503
REMARK  205  A    between atoms: _503  and  _504
REMARK  206  A    between atoms: _509  and  _511
REMARK  207  A    between atoms: _511  and  _512
REMARK  208  A    between atoms: _511  and  _514
REMARK  209  A    between atoms: _514  and  _515
REMARK  210  A    between atoms: _518  and  _520
REMARK  211  A    between atoms: _520  and  _521
REMARK  212  A    between atoms: _520  and  _523
REMARK  213  A    between atoms: _523  and  _524
REMARK  214  A    between atoms: _527  and  _529
REMARK  215  A    between atoms: _529  and  _530
REMARK  216  A    between atoms: _532  and  _534
REMARK  217  A    between atoms: _534  and  _535
REMARK  218  A    between atoms: _534  and  _537
REMARK  219  A    between atoms: _537  and  _538
REMARK  220  A    between atoms: _538  and  _539
REMARK  221  A    between atoms: _539  and  _540
REMARK  222  A    between atoms: _549  and  _551
REMARK  223  A    between atoms: _551  and  _552
REMARK  224  A    between atoms: _551  and  _554
REMARK  225  A    between atoms: _554  and  _555
REMARK                            x       y       z     vdW  Elec       q    Type
REMARK                         _______ _______ _______ _____ _____    ______ ____
ROOT
ATOM      1  O   HOH     1      21.863  26.933  22.633  0.00  0.00    +0.000 OA
ENDROOT
TORSDOF 0
REMARK  Name = ../refined-set-2016/3bva/3bva_pocket.pdb
REMARK  225 active torsions:
REMARK  status: ('A' for Active; 'I' for Inactive)
REMARK    1  A    between atoms: _1  and  _3
REMARK    2  A    between atoms: _3  and  _4
REMARK    3  A    between atoms: _3  and  _6
REMARK    4  A    between atoms: _6  and  _7
REMARK    5  A    between atoms: _7  and  _8
REMARK    6  A    between atoms: _8  and  _9
REMARK    7  A    between atoms: _18  and  _20
REMARK    8  A    between atoms: _20  and  _21
REMARK    9  A    between atoms: _20  and  _23
REMARK   10  A    between atoms: _23  and  _24
REMARK   11  A    between atoms: _27  and  _29
REMARK   12  A    between atoms: _29  and  _30
REMARK   13  A    between atoms: _29  and  _32
REMARK   14  A    between atoms: _32  and  _33
REMARK   15  A    between atoms: _38  and  _40
REMARK   16  A    between atoms: _40  and  _41
REMARK   17  A    between atoms: _40  and  _43
REMARK   18  A    between atoms: _43  and  _44
REMARK   19  A    between atoms: _47  and  _49
REMARK   20  A    between atoms: _49  and  _50
REMARK   21  A    between atoms: _52  and  _54
REMARK   22  A    between atoms: _54  and  _55
REMARK   23  A    between atoms: _58  and  _60
REMARK   24  A    between atoms: _60  and  _61
REMARK   25  A    between atoms: _60  and  _63
REMARK   26  A    between atoms: _63  and  _64
REMARK   27  A    between atoms: _67  and  _69
REMARK   28  A    between atoms: _69  and  _70
REMARK   29  A    between atoms: _69  and  _72
REMARK   30  A    between atoms: _72  and  _73
REMARK   31  A    between atoms: _76  and  _78
REMARK   32  A    between atoms: _78  and  _79
REMARK   33  A    between atoms: _78  and  _81
REMARK   34  A    between atoms: _81  and  _82
REMARK   35  A    between atoms: _85  and  _87
REMARK   36  A    between atoms: _87  and  _88
REMARK   37  A    between atoms: _87  and  _90
REMARK   38  A    between atoms: _93  and  _95
REMARK   39  A    between atoms: _95  and  _96
REMARK   40  A    between atoms: _95  and  _98
REMARK   41  A    between atoms: _98  and  _99
REMARK   42  A    between atoms: _99  and  _100
REMARK   43  A    between atoms: _100  and  _101
REMARK   44  A    between atoms: _101  and  _102
REMARK   45  A    between atoms: _106  and  _108
REMARK   46  A    between atoms: _108  and  _109
REMARK   47  A    between atoms: _108  and  _111
REMARK   48  A    between atoms: _111  and  _112
REMARK   49  A    between atoms: _112  and  _113
REMARK   50  A    between atoms: _115  and  _117
REMARK   51  A    between atoms: _117  and  _118
REMARK   52  A    between atoms: _117  and  _120
REMARK   53  A    between atoms: _120  and  _121
REMARK   54  A    between atoms: _124  and  _126
REMARK   55  A    between atoms: _126  and  _127
REMARK   56  A    between atoms: _129  and  _131
REMARK   57  A    between atoms: _131  and  _132
REMARK   58  A    between atoms: _134  and  _136
REMARK   59  A    between atoms: _136  and  _137
REMARK   60  A    between atoms: _136  and  _139
REMARK   61  A    between atoms: _139  and  _140
REMARK   62  A    between atoms: _143  and  _145
REMARK   63  A    between atoms: _145  and  _146
REMARK   64  A    between atoms: _148  and  _150
REMARK   65  A    between atoms: _150  and  _151
REMARK   66  A    between atoms: _153  and  _155
REMARK   67  A    between atoms: _155  and  _156
REMARK   68  A    between atoms: _155  and  _158
REMARK   69  A    between atoms: _158  and  _159
REMARK   70  A    between atoms: _165  and  _167
REMARK   71  A    between atoms: _167  and  _168
REMARK   72  A    between atoms: _167  and  _170
REMARK   73  A    between atoms: _170  and  _171
REMARK   74  A    between atoms: _174  and  _176
REMARK   75  A    between atoms: _176  and  _177
REMARK   76  A    between atoms: _176  and  _179
REMARK   77  A    between atoms: _182  and  _184
REMARK   78  A    between atoms: _184  and  _185
REMARK   79  A    between atoms: _184  and  _187
REMARK   80  A    between atoms: _187  and  _188
REMARK   81  A    between atoms: _191  and  _193
REMARK   82  A    between atoms: _193  and  _194
REMARK   83  A    between atoms: _193  and  _196
REMARK   84  A    between atoms: _196  and  _197
REMARK   85  A    between atoms: _201  and  _202
REMARK   86  A    between atoms: _207  and  _209
REMARK   87  A    between atoms: _209  and  _210
REMARK   88  A    between atoms: _209  and  _212
REMARK   89  A    between atoms: _215  and  _217
REMARK   90  A    between atoms: _217  and  _218
REMARK   91  A    between atoms: _217  and  _220
REMARK   92  A    between atoms: _220  and  _221
REMARK   93  A    between atoms: _226  and  _228
REMARK   94  A    between atoms: _228  and  _229
REMARK   95  A    between atoms: _228  and  _231
REMARK   96  A    between atoms: _231  and  _232
REMARK   97  A    between atoms: _235  and  _237
REMARK   98  A    between atoms: _237  and  _238
REMARK   99  A    between atoms: _240  and  _242
REMARK  100  A    between atoms: _242  and  _243
REMARK  101  A    between atoms: _242  and  _245
REMARK  102  A    between atoms: _245  and  _246
REMARK  103  A    between atoms: _246  and  _247
REMARK  104  A    between atoms: _247  and  _248
REMARK  105  A    between atoms: _257  and  _259
REMARK  106  A    between atoms: _259  and  _260
REMARK  107  A    between atoms: _259  and  _262
REMARK  108  A    between atoms: _262  and  _263
REMARK  109  A    between atoms: _268  and  _270
REMARK  110  A    between atoms: _270  and  _271
REMARK  111  A    between atoms: _270  and  _273
REMARK  112  A    between atoms: _273  and  _274
REMARK  113  A    between atoms: _274  and  _275
REMARK  114  A    between atoms: _275  and  _276
REMARK  115  A    between atoms: _285  and  _287
REMARK  116  A    between atoms: _287  and  _288
REMARK  117  A    between atoms: _287  and  _290
REMARK  118  A    between atoms: _290  and  _291
REMARK  119  A    between atoms: _294  and  _296
REMARK  120  A    between atoms: _296  and  _297
REMARK  121  A    between atoms: _296  and  _299
REMARK  122  A    between atoms: _299  and  _300
REMARK  123  A    between atoms: _303  and  _305
REMARK  124  A    between atoms: _305  and  _306
REMARK  125  A    between atoms: _305  and  _308
REMARK  126  A    between atoms: _308  and  _309
REMARK  127  A    between atoms: _314  and  _316
REMARK  128  A    between atoms: _316  and  _317
REMARK  129  A    between atoms: _316  and  _319
REMARK  130  A    between atoms: _319  and  _320
REMARK  131  A    between atoms: _323  and  _325
REMARK  132  A    between atoms: _325  and  _326
REMARK  133  A    between atoms: _328  and  _330
REMARK  134  A    between atoms: _330  and  _331
REMARK  135  A    between atoms: _334  and  _336
REMARK  136  A    between atoms: _336  and  _337
REMARK  137  A    between atoms: _336  and  _339
REMARK  138  A    between atoms: _339  and  _340
REMARK  139  A    between atoms: _343  and  _345
REMARK  140  A    between atoms: _345  and  _346
REMARK  141  A    between atoms: _345  and  _348
REMARK  142  A    between atoms: _348  and  _349
REMARK  143  A    between atoms: _352  and  _354
REMARK  144  A    between atoms: _354  and  _355
REMARK  145  A    between atoms: _354  and  _357
REMARK  146  A    between atoms: _357  and  _358
REMARK  147  A    between atoms: _361  and  _363
REMARK  148  A    between atoms: _363  and  _364
REMARK  149  A    between atoms: _363  and  _366
REMARK  150  A    between atoms: _369  and  _371
REMARK  151  A    between atoms: _371  and  _372
REMARK  152  A    between atoms: _371  and  _374
REMARK  153  A    between atoms: _374  and  _375
REMARK  154  A    between atoms: _375  and  _376
REMARK  155  A    between atoms: _376  and  _377
REMARK  156  A    between atoms: _377  and  _378
REMARK  157  A    between atoms: _382  and  _384
REMARK  158  A    between atoms: _384  and  _385
REMARK  159  A    between atoms: _384  and  _387
REMARK  160  A    between atoms: _387  and  _388
REMARK  161  A    between atoms: _388  and  _389
REMARK  162  A    between atoms: _391  and  _393
REMARK  163  A    between atoms: _393  and  _394
REMARK  164  A    between atoms: _393  and  _396
REMARK  165  A    between atoms: _396  and  _397
REMARK  166  A    between atoms: _400  and  _402
REMARK  167  A    between atoms: _402  and  _403
REMARK  168  A    between atoms: _405  and  _407
REMARK  169  A    between atoms: _407  and  _408
REMARK  170  A    between atoms: _410  and  _412
REMARK  171  A    between atoms: _412  and  _413
REMARK  172  A    between atoms: _412  and  _415
REMARK  173  A    between atoms: _415  and  _416
REMARK  174  A    between atoms: _419  and  _421
REMARK  175  A    between atoms: _421  and  _422
REMARK  176  A    between atoms: _424  and  _426
REMARK  177  A    between atoms: _426  and  _427
REMARK  178  A    between atoms: _429  and  _431
REMARK  179  A    between atoms: _431  and  _432
REMARK  180  A    between atoms: _431  and  _434
REMARK  181  A    between atoms: _434  and  _435
REMARK  182  A    between atoms: _441  and  _443
REMARK  183  A    between atoms: _443  and  _444
REMARK  184  A    between atoms: _443  and  _446
REMARK  185  A    between atoms: _446  and  _447
REMARK  186  A    between atoms: _450  and  _452
REMARK  187  A    between atoms: _452  and  _453
REMARK  188  A    between atoms: _452  and  _455
REMARK  189  A    between atoms: _458  and  _460
REMARK  190  A    between atoms: _460  and  _461
REMARK  191  A    between atoms: _460  and  _463
REMARK  192  A    between atoms: _463  and  _464
REMARK  193  A    between atoms: _468  and  _469
REMARK  194  A    between atoms: _474  and  _476
REMARK  195  A    between atoms: _476  and  _477
REMARK  196  A    between atoms: _476  and  _479
REMARK  197  A    between atoms: _479  and  _480
REMARK  198  A    between atoms: _484  and  _485
REMARK  199  A    between atoms: _490  and  _492
REMARK  200  A    between atoms: _492  and  _493
REMARK  201  A    between atoms: _492  and  _495
REMARK  202  A    between atoms: _498  and  _500
REMARK  203  A    between atoms: _500  and  _501
REMARK  204  A    between atoms: _500  and  _503
REMARK  205  A    between atoms: _503  and  _504
REMARK  206  A    between atoms: _509  and  _511
REMARK  207  A    between atoms: _511  and  _512
REMARK  208  A    between atoms: _511  and  _514
REMARK  209  A    between atoms: _514  and  _515
REMARK  210  A    between atoms: _518  and  _520
REMARK  211  A    between atoms: _520  and  _521
REMARK  212  A    between atoms: _520  and  _523
REMARK  213  A    between atoms: _523  and  _524
REMARK  214  A    between atoms: _527  and  _529
REMARK  215  A    between atoms: _529  and  _530
REMARK  216  A    between atoms: _532  and  _534
REMARK  217  A    between atoms: _534  and  _535
REMARK  218  A    between atoms: _534  and  _537
REMARK  219  A    between atoms: _537  and  _538
REMARK  220  A    between atoms: _538  and  _539
REMARK  221  A    between atoms: _539  and  _540
REMARK  222  A    between atoms: _549  and  _551
REMARK  223  A    between atoms: _551  and  _552
REMARK  224  A    between atoms: _551  and  _554
REMARK  225  A    between atoms: _554  and  _555
REMARK                            x       y       z     vdW  Elec       q    Type
REMARK                         _______ _______ _______ _____ _____    ______ ____
ROOT
ATOM      1  O   HOH     1      26.815  21.998  24.126  0.00  0.00    +0.000 OA
ENDROOT
TORSDOF 0
REMARK  Name = ../refined-set-2016/3bva/3bva_pocket.pdb
REMARK  225 active torsions:
REMARK  status: ('A' for Active; 'I' for Inactive)
REMARK    1  A    between atoms: _1  and  _3
REMARK    2  A    between atoms: _3  and  _4
REMARK    3  A    between atoms: _3  and  _6
REMARK    4  A    between atoms: _6  and  _7
REMARK    5  A    between atoms: _7  and  _8
REMARK    6  A    between atoms: _8  and  _9
REMARK    7  A    between atoms: _18  and  _20
REMARK    8  A    between atoms: _20  and  _21
REMARK    9  A    between atoms: _20  and  _23
REMARK   10  A    between atoms: _23  and  _24
REMARK   11  A    between atoms: _27  and  _29
REMARK   12  A    between atoms: _29  and  _30
REMARK   13  A    between atoms: _29  and  _32
REMARK   14  A    between atoms: _32  and  _33
REMARK   15  A    between atoms: _38  and  _40
REMARK   16  A    between atoms: _40  and  _41
REMARK   17  A    between atoms: _40  and  _43
REMARK   18  A    between atoms: _43  and  _44
REMARK   19  A    between atoms: _47  and  _49
REMARK   20  A    between atoms: _49  and  _50
REMARK   21  A    between atoms: _52  and  _54
REMARK   22  A    between atoms: _54  and  _55
REMARK   23  A    between atoms: _58  and  _60
REMARK   24  A    between atoms: _60  and  _61
REMARK   25  A    between atoms: _60  and  _63
REMARK   26  A    between atoms: _63  and  _64
REMARK   27  A    between atoms: _67  and  _69
REMARK   28  A    between atoms: _69  and  _70
REMARK   29  A    between atoms: _69  and  _72
REMARK   30  A    between atoms: _72  and  _73
REMARK   31  A    between atoms: _76  and  _78
REMARK   32  A    between atoms: _78  and  _79
REMARK   33  A    between atoms: _78  and  _81
REMARK   34  A    between atoms: _81  and  _82
REMARK   35  A    between atoms: _85  and  _87
REMARK   36  A    between atoms: _87  and  _88
REMARK   37  A    between atoms: _87  and  _90
REMARK   38  A    between atoms: _93  and  _95
REMARK   39  A    between atoms: _95  and  _96
REMARK   40  A    between atoms: _95  and  _98
REMARK   41  A    between atoms: _98  and  _99
REMARK   42  A    between atoms: _99  and  _100
REMARK   43  A    between atoms: _100  and  _101
REMARK   44  A    between atoms: _101  and  _102
REMARK   45  A    between atoms: _106  and  _108
REMARK   46  A    between atoms: _108  and  _109
REMARK   47  A    between atoms: _108  and  _111
REMARK   48  A    between atoms: _111  and  _112
REMARK   49  A    between atoms: _112  and  _113
REMARK   50  A    between atoms: _115  and  _117
REMARK   51  A    between atoms: _117  and  _118
REMARK   52  A    between atoms: _117  and  _120
REMARK   53  A    between atoms: _120  and  _121
REMARK   54  A    between atoms: _124  and  _126
REMARK   55  A    between atoms: _126  and  _127
REMARK   56  A    between atoms: _129  and  _131
REMARK   57  A    between atoms: _131  and  _132
REMARK   58  A    between atoms: _134  and  _136
REMARK   59  A    between atoms: _136  and  _137
REMARK   60  A    between atoms: _136  and  _139
REMARK   61  A    between atoms: _139  and  _140
REMARK   62  A    between atoms: _143  and  _145
REMARK   63  A    between atoms: _145  and  _146
REMARK   64  A    between atoms: _148  and  _150
REMARK   65  A    between atoms: _150  and  _151
REMARK   66  A    between atoms: _153  and  _155
REMARK   67  A    between atoms: _155  and  _156
REMARK   68  A    between atoms: _155  and  _158
REMARK   69  A    between atoms: _158  and  _159
REMARK   70  A    between atoms: _165  and  _167
REMARK   71  A    between atoms: _167  and  _168
REMARK   72  A    between atoms: _167  and  _170
REMARK   73  A    between atoms: _170  and  _171
REMARK   74  A    between atoms: _174  and  _176
REMARK   75  A    between atoms: _176  and  _177
REMARK   76  A    between atoms: _176  and  _179
REMARK   77  A    between atoms: _182  and  _184
REMARK   78  A    between atoms: _184  and  _185
REMARK   79  A    between atoms: _184  and  _187
REMARK   80  A    between atoms: _187  and  _188
REMARK   81  A    between atoms: _191  and  _193
REMARK   82  A    between atoms: _193  and  _194
REMARK   83  A    between atoms: _193  and  _196
REMARK   84  A    between atoms: _196  and  _197
REMARK   85  A    between atoms: _201  and  _202
REMARK   86  A    between atoms: _207  and  _209
REMARK   87  A    between atoms: _209  and  _210
REMARK   88  A    between atoms: _209  and  _212
REMARK   89  A    between atoms: _215  and  _217
REMARK   90  A    between atoms: _217  and  _218
REMARK   91  A    between atoms: _217  and  _220
REMARK   92  A    between atoms: _220  and  _221
REMARK   93  A    between atoms: _226  and  _228
REMARK   94  A    between atoms: _228  and  _229
REMARK   95  A    between atoms: _228  and  _231
REMARK   96  A    between atoms: _231  and  _232
REMARK   97  A    between atoms: _235  and  _237
REMARK   98  A    between atoms: _237  and  _238
REMARK   99  A    between atoms: _240  and  _242
REMARK  100  A    between atoms: _242  and  _243
REMARK  101  A    between atoms: _242  and  _245
REMARK  102  A    between atoms: _245  and  _246
REMARK  103  A    between atoms: _246  and  _247
REMARK  104  A    between atoms: _247  and  _248
REMARK  105  A    between atoms: _257  and  _259
REMARK  106  A    between atoms: _259  and  _260
REMARK  107  A    between atoms: _259  and  _262
REMARK  108  A    between atoms: _262  and  _263
REMARK  109  A    between atoms: _268  and  _270
REMARK  110  A    between atoms: _270  and  _271
REMARK  111  A    between atoms: _270  and  _273
REMARK  112  A    between atoms: _273  and  _274
REMARK  113  A    between atoms: _274  and  _275
REMARK  114  A    between atoms: _275  and  _276
REMARK  115  A    between atoms: _285  and  _287
REMARK  116  A    between atoms: _287  and  _288
REMARK  117  A    between atoms: _287  and  _290
REMARK  118  A    between atoms: _290  and  _291
REMARK  119  A    between atoms: _294  and  _296
REMARK  120  A    between atoms: _296  and  _297
REMARK  121  A    between atoms: _296  and  _299
REMARK  122  A    between atoms: _299  and  _300
REMARK  123  A    between atoms: _303  and  _305
REMARK  124  A    between atoms: _305  and  _306
REMARK  125  A    between atoms: _305  and  _308
REMARK  126  A    between atoms: _308  and  _309
REMARK  127  A    between atoms: _314  and  _316
REMARK  128  A    between atoms: _316  and  _317
REMARK  129  A    between atoms: _316  and  _319
REMARK  130  A    between atoms: _319  and  _320
REMARK  131  A    between atoms: _323  and  _325
REMARK  132  A    between atoms: _325  and  _326
REMARK  133  A    between atoms: _328  and  _330
REMARK  134  A    between atoms: _330  and  _331
REMARK  135  A    between atoms: _334  and  _336
REMARK  136  A    between atoms: _336  and  _337
REMARK  137  A    between atoms: _336  and  _339
REMARK  138  A    between atoms: _339  and  _340
REMARK  139  A    between atoms: _343  and  _345
REMARK  140  A    between atoms: _345  and  _346
REMARK  141  A    between atoms: _345  and  _348
REMARK  142  A    between atoms: _348  and  _349
REMARK  143  A    between atoms: _352  and  _354
REMARK  144  A    between atoms: _354  and  _355
REMARK  145  A    between atoms: _354  and  _357
REMARK  146  A    between atoms: _357  and  _358
REMARK  147  A    between atoms: _361  and  _363
REMARK  148  A    between atoms: _363  and  _364
REMARK  149  A    between atoms: _363  and  _366
REMARK  150  A    between atoms: _369  and  _371
REMARK  151  A    between atoms: _371  and  _372
REMARK  152  A    between atoms: _371  and  _374
REMARK  153  A    between atoms: _374  and  _375
REMARK  154  A    between atoms: _375  and  _376
REMARK  155  A    between atoms: _376  and  _377
REMARK  156  A    between atoms: _377  and  _378
REMARK  157  A    between atoms: _382  and  _384
REMARK  158  A    between atoms: _384  and  _385
REMARK  159  A    between atoms: _384  and  _387
REMARK  160  A    between atoms: _387  and  _388
REMARK  161  A    between atoms: _388  and  _389
REMARK  162  A    between atoms: _391  and  _393
REMARK  163  A    between atoms: _393  and  _394
REMARK  164  A    between atoms: _393  and  _396
REMARK  165  A    between atoms: _396  and  _397
REMARK  166  A    between atoms: _400  and  _402
REMARK  167  A    between atoms: _402  and  _403
REMARK  168  A    between atoms: _405  and  _407
REMARK  169  A    between atoms: _407  and  _408
REMARK  170  A    between atoms: _410  and  _412
REMARK  171  A    between atoms: _412  and  _413
REMARK  172  A    between atoms: _412  and  _415
REMARK  173  A    between atoms: _415  and  _416
REMARK  174  A    between atoms: _419  and  _421
REMARK  175  A    between atoms: _421  and  _422
REMARK  176  A    between atoms: _424  and  _426
REMARK  177  A    between atoms: _426  and  _427
REMARK  178  A    between atoms: _429  and  _431
REMARK  179  A    between atoms: _431  and  _432
REMARK  180  A    between atoms: _431  and  _434
REMARK  181  A    between atoms: _434  and  _435
REMARK  182  A    between atoms: _441  and  _443
REMARK  183  A    between atoms: _443  and  _444
REMARK  184  A    between atoms: _443  and  _446
REMARK  185  A    between atoms: _446  and  _447
REMARK  186  A    between atoms: _450  and  _452
REMARK  187  A    between atoms: _452  and  _453
REMARK  188  A    between atoms: _452  and  _455
REMARK  189  A    between atoms: _458  and  _460
REMARK  190  A    between atoms: _460  and  _461
REMARK  191  A    between atoms: _460  and  _463
REMARK  192  A    between atoms: _463  and  _464
REMARK  193  A    between atoms: _468  and  _469
REMARK  194  A    between atoms: _474  and  _476
REMARK  195  A    between atoms: _476  and  _477
REMARK  196  A    between atoms: _476  and  _479
REMARK  197  A    between atoms: _479  and  _480
REMARK  198  A    between atoms: _484  and  _485
REMARK  199  A    between atoms: _490  and  _492
REMARK  200  A    between atoms: _492  and  _493
REMARK  201  A    between atoms: _492  and  _495
REMARK  202  A    between atoms: _498  and  _500
REMARK  203  A    between atoms: _500  and  _501
REMARK  204  A    between atoms: _500  and  _503
REMARK  205  A    between atoms: _503  and  _504
REMARK  206  A    between atoms: _509  and  _511
REMARK  207  A    between atoms: _511  and  _512
REMARK  208  A    between atoms: _511  and  _514
REMARK  209  A    between atoms: _514  and  _515
REMARK  210  A    between atoms: _518  and  _520
REMARK  211  A    between atoms: _520  and  _521
REMARK  212  A    between atoms: _520  and  _523
REMARK  213  A    between atoms: _523  and  _524
REMARK  214  A    between atoms: _527  and  _529
REMARK  215  A    between atoms: _529  and  _530
REMARK  216  A    between atoms: _532  and  _534
REMARK  217  A    between atoms: _534  and  _535
REMARK  218  A    between atoms: _534  and  _537
REMARK  219  A    between atoms: _537  and  _538
REMARK  220  A    between atoms: _538  and  _539
REMARK  221  A    between atoms: _539  and  _540
REMARK  222  A    between atoms: _549  and  _551
REMARK  223  A    between atoms: _551  and  _552
REMARK  224  A    between atoms: _551  and  _554
REMARK  225  A    between atoms: _554  and  _555
REMARK                            x       y       z     vdW  Elec       q    Type
REMARK                         _______ _______ _______ _____ _____    ______ ____
ROOT
ATOM      1  O   HOH     1      10.634  14.430  12.912  0.00  0.00    +0.000 OA
ENDROOT
TORSDOF 0
REMARK  Name = ../refined-set-2016/3bva/3bva_pocket.pdb
REMARK  225 active torsions:
REMARK  status: ('A' for Active; 'I' for Inactive)
REMARK    1  A    between atoms: _1  and  _3
REMARK    2  A    between atoms: _3  and  _4
REMARK    3  A    between atoms: _3  and  _6
REMARK    4  A    between atoms: _6  and  _7
REMARK    5  A    between atoms: _7  and  _8
REMARK    6  A    between atoms: _8  and  _9
REMARK    7  A    between atoms: _18  and  _20
REMARK    8  A    between atoms: _20  and  _21
REMARK    9  A    between atoms: _20  and  _23
REMARK   10  A    between atoms: _23  and  _24
REMARK   11  A    between atoms: _27  and  _29
REMARK   12  A    between atoms: _29  and  _30
REMARK   13  A    between atoms: _29  and  _32
REMARK   14  A    between atoms: _32  and  _33
REMARK   15  A    between atoms: _38  and  _40
REMARK   16  A    between atoms: _40  and  _41
REMARK   17  A    between atoms: _40  and  _43
REMARK   18  A    between atoms: _43  and  _44
REMARK   19  A    between atoms: _47  and  _49
REMARK   20  A    between atoms: _49  and  _50
REMARK   21  A    between atoms: _52  and  _54
REMARK   22  A    between atoms: _54  and  _55
REMARK   23  A    between atoms: _58  and  _60
REMARK   24  A    between atoms: _60  and  _61
REMARK   25  A    between atoms: _60  and  _63
REMARK   26  A    between atoms: _63  and  _64
REMARK   27  A    between atoms: _67  and  _69
REMARK   28  A    between atoms: _69  and  _70
REMARK   29  A    between atoms: _69  and  _72
REMARK   30  A    between atoms: _72  and  _73
REMARK   31  A    between atoms: _76  and  _78
REMARK   32  A    between atoms: _78  and  _79
REMARK   33  A    between atoms: _78  and  _81
REMARK   34  A    between atoms: _81  and  _82
REMARK   35  A    between atoms: _85  and  _87
REMARK   36  A    between atoms: _87  and  _88
REMARK   37  A    between atoms: _87  and  _90
REMARK   38  A    between atoms: _93  and  _95
REMARK   39  A    between atoms: _95  and  _96
REMARK   40  A    between atoms: _95  and  _98
REMARK   41  A    between atoms: _98  and  _99
REMARK   42  A    between atoms: _99  and  _100
REMARK   43  A    between atoms: _100  and  _101
REMARK   44  A    between atoms: _101  and  _102
REMARK   45  A    between atoms: _106  and  _108
REMARK   46  A    between atoms: _108  and  _109
REMARK   47  A    between atoms: _108  and  _111
REMARK   48  A    between atoms: _111  and  _112
REMARK   49  A    between atoms: _112  and  _113
REMARK   50  A    between atoms: _115  and  _117
REMARK   51  A    between atoms: _117  and  _118
REMARK   52  A    between atoms: _117  and  _120
REMARK   53  A    between atoms: _120  and  _121
REMARK   54  A    between atoms: _124  and  _126
REMARK   55  A    between atoms: _126  and  _127
REMARK   56  A    between atoms: _129  and  _131
REMARK   57  A    between atoms: _131  and  _132
REMARK   58  A    between atoms: _134  and  _136
REMARK   59  A    between atoms: _136  and  _137
REMARK   60  A    between atoms: _136  and  _139
REMARK   61  A    between atoms: _139  and  _140
REMARK   62  A    between atoms: _143  and  _145
REMARK   63  A    between atoms: _145  and  _146
REMARK   64  A    between atoms: _148  and  _150
REMARK   65  A    between atoms: _150  and  _151
REMARK   66  A    between atoms: _153  and  _155
REMARK   67  A    between atoms: _155  and  _156
REMARK   68  A    between atoms: _155  and  _158
REMARK   69  A    between atoms: _158  and  _159
REMARK   70  A    between atoms: _165  and  _167
REMARK   71  A    between atoms: _167  and  _168
REMARK   72  A    between atoms: _167  and  _170
REMARK   73  A    between atoms: _170  and  _171
REMARK   74  A    between atoms: _174  and  _176
REMARK   75  A    between atoms: _176  and  _177
REMARK   76  A    between atoms: _176  and  _179
REMARK   77  A    between atoms: _182  and  _184
REMARK   78  A    between atoms: _184  and  _185
REMARK   79  A    between atoms: _184  and  _187
REMARK   80  A    between atoms: _187  and  _188
REMARK   81  A    between atoms: _191  and  _193
REMARK   82  A    between atoms: _193  and  _194
REMARK   83  A    between atoms: _193  and  _196
REMARK   84  A    between atoms: _196  and  _197
REMARK   85  A    between atoms: _201  and  _202
REMARK   86  A    between atoms: _207  and  _209
REMARK   87  A    between atoms: _209  and  _210
REMARK   88  A    between atoms: _209  and  _212
REMARK   89  A    between atoms: _215  and  _217
REMARK   90  A    between atoms: _217  and  _218
REMARK   91  A    between atoms: _217  and  _220
REMARK   92  A    between atoms: _220  and  _221
REMARK   93  A    between atoms: _226  and  _228
REMARK   94  A    between atoms: _228  and  _229
REMARK   95  A    between atoms: _228  and  _231
REMARK   96  A    between atoms: _231  and  _232
REMARK   97  A    between atoms: _235  and  _237
REMARK   98  A    between atoms: _237  and  _238
REMARK   99  A    between atoms: _240  and  _242
REMARK  100  A    between atoms: _242  and  _243
REMARK  101  A    between atoms: _242  and  _245
REMARK  102  A    between atoms: _245  and  _246
REMARK  103  A    between atoms: _246  and  _247
REMARK  104  A    between atoms: _247  and  _248
REMARK  105  A    between atoms: _257  and  _259
REMARK  106  A    between atoms: _259  and  _260
REMARK  107  A    between atoms: _259  and  _262
REMARK  108  A    between atoms: _262  and  _263
REMARK  109  A    between atoms: _268  and  _270
REMARK  110  A    between atoms: _270  and  _271
REMARK  111  A    between atoms: _270  and  _273
REMARK  112  A    between atoms: _273  and  _274
REMARK  113  A    between atoms: _274  and  _275
REMARK  114  A    between atoms: _275  and  _276
REMARK  115  A    between atoms: _285  and  _287
REMARK  116  A    between atoms: _287  and  _288
REMARK  117  A    between atoms: _287  and  _290
REMARK  118  A    between atoms: _290  and  _291
REMARK  119  A    between atoms: _294  and  _296
REMARK  120  A    between atoms: _296  and  _297
REMARK  121  A    between atoms: _296  and  _299
REMARK  122  A    between atoms: _299  and  _300
REMARK  123  A    between atoms: _303  and  _305
REMARK  124  A    between atoms: _305  and  _306
REMARK  125  A    between atoms: _305  and  _308
REMARK  126  A    between atoms: _308  and  _309
REMARK  127  A    between atoms: _314  and  _316
REMARK  128  A    between atoms: _316  and  _317
REMARK  129  A    between atoms: _316  and  _319
REMARK  130  A    between atoms: _319  and  _320
REMARK  131  A    between atoms: _323  and  _325
REMARK  132  A    between atoms: _325  and  _326
REMARK  133  A    between atoms: _328  and  _330
REMARK  134  A    between atoms: _330  and  _331
REMARK  135  A    between atoms: _334  and  _336
REMARK  136  A    between atoms: _336  and  _337
REMARK  137  A    between atoms: _336  and  _339
REMARK  138  A    between atoms: _339  and  _340
REMARK  139  A    between atoms: _343  and  _345
REMARK  140  A    between atoms: _345  and  _346
REMARK  141  A    between atoms: _345  and  _348
REMARK  142  A    between atoms: _348  and  _349
REMARK  143  A    between atoms: _352  and  _354
REMARK  144  A    between atoms: _354  and  _355
REMARK  145  A    between atoms: _354  and  _357
REMARK  146  A    between atoms: _357  and  _358
REMARK  147  A    between atoms: _361  and  _363
REMARK  148  A    between atoms: _363  and  _364
REMARK  149  A    between atoms: _363  and  _366
REMARK  150  A    between atoms: _369  and  _371
REMARK  151  A    between atoms: _371  and  _372
REMARK  152  A    between atoms: _371  and  _374
REMARK  153  A    between atoms: _374  and  _375
REMARK  154  A    between atoms: _375  and  _376
REMARK  155  A    between atoms: _376  and  _377
REMARK  156  A    between atoms: _377  and  _378
REMARK  157  A    between atoms: _382  and  _384
REMARK  158  A    between atoms: _384  and  _385
REMARK  159  A    between atoms: _384  and  _387
REMARK  160  A    between atoms: _387  and  _388
REMARK  161  A    between atoms: _388  and  _389
REMARK  162  A    between atoms: _391  and  _393
REMARK  163  A    between atoms: _393  and  _394
REMARK  164  A    between atoms: _393  and  _396
REMARK  165  A    between atoms: _396  and  _397
REMARK  166  A    between atoms: _400  and  _402
REMARK  167  A    between atoms: _402  and  _403
REMARK  168  A    between atoms: _405  and  _407
REMARK  169  A    between atoms: _407  and  _408
REMARK  170  A    between atoms: _410  and  _412
REMARK  171  A    between atoms: _412  and  _413
REMARK  172  A    between atoms: _412  and  _415
REMARK  173  A    between atoms: _415  and  _416
REMARK  174  A    between atoms: _419  and  _421
REMARK  175  A    between atoms: _421  and  _422
REMARK  176  A    between atoms: _424  and  _426
REMARK  177  A    between atoms: _426  and  _427
REMARK  178  A    between atoms: _429  and  _431
REMARK  179  A    between atoms: _431  and  _432
REMARK  180  A    between atoms: _431  and  _434
REMARK  181  A    between atoms: _434  and  _435
REMARK  182  A    between atoms: _441  and  _443
REMARK  183  A    between atoms: _443  and  _444
REMARK  184  A    between atoms: _443  and  _446
REMARK  185  A    between atoms: _446  and  _447
REMARK  186  A    between atoms: _450  and  _452
REMARK  187  A    between atoms: _452  and  _453
REMARK  188  A    between atoms: _452  and  _455
REMARK  189  A    between atoms: _458  and  _460
REMARK  190  A    between atoms: _460  and  _461
REMARK  191  A    between atoms: _460  and  _463
REMARK  192  A    between atoms: _463  and  _464
REMARK  193  A    between atoms: _468  and  _469
REMARK  194  A    between atoms: _474  and  _476
REMARK  195  A    between atoms: _476  and  _477
REMARK  196  A    between atoms: _476  and  _479
REMARK  197  A    between atoms: _479  and  _480
REMARK  198  A    between atoms: _484  and  _485
REMARK  199  A    between atoms: _490  and  _492
REMARK  200  A    between atoms: _492  and  _493
REMARK  201  A    between atoms: _492  and  _495
REMARK  202  A    between atoms: _498  and  _500
REMARK  203  A    between atoms: _500  and  _501
REMARK  204  A    between atoms: _500  and  _503
REMARK  205  A    between atoms: _503  and  _504
REMARK  206  A    between atoms: _509  and  _511
REMARK  207  A    between atoms: _511  and  _512
REMARK  208  A    between atoms: _511  and  _514
REMARK  209  A    between atoms: _514  and  _515
REMARK  210  A    between atoms: _518  and  _520
REMARK  211  A    between atoms: _520  and  _521
REMARK  212  A    between atoms: _520  and  _523
REMARK  213  A    between atoms: _523  and  _524
REMARK  214  A    between atoms: _527  and  _529
REMARK  215  A    between atoms: _529  and  _530
REMARK  216  A    between atoms: _532  and  _534
REMARK  217  A    between atoms: _534  and  _535
REMARK  218  A    between atoms: _534  and  _537
REMARK  219  A    between atoms: _537  and  _538
REMARK  220  A    between atoms: _538  and  _539
REMARK  221  A    between atoms: _539  and  _540
REMARK  222  A    between atoms: _549  and  _551
REMARK  223  A    between atoms: _551  and  _552
REMARK  224  A    between atoms: _551  and  _554
REMARK  225  A    between atoms: _554  and  _555
REMARK                            x       y       z     vdW  Elec       q    Type
REMARK                         _______ _______ _______ _____ _____    ______ ____
ROOT
ATOM      1  O   HOH     1       7.032  13.080  24.674  0.00  0.00    +0.000 OA
ENDROOT
TORSDOF 0
REMARK  Name = ../refined-set-2016/3bva/3bva_pocket.pdb
REMARK  225 active torsions:
REMARK  status: ('A' for Active; 'I' for Inactive)
REMARK    1  A    between atoms: _1  and  _3
REMARK    2  A    between atoms: _3  and  _4
REMARK    3  A    between atoms: _3  and  _6
REMARK    4  A    between atoms: _6  and  _7
REMARK    5  A    between atoms: _7  and  _8
REMARK    6  A    between atoms: _8  and  _9
REMARK    7  A    between atoms: _18  and  _20
REMARK    8  A    between atoms: _20  and  _21
REMARK    9  A    between atoms: _20  and  _23
REMARK   10  A    between atoms: _23  and  _24
REMARK   11  A    between atoms: _27  and  _29
REMARK   12  A    between atoms: _29  and  _30
REMARK   13  A    between atoms: _29  and  _32
REMARK   14  A    between atoms: _32  and  _33
REMARK   15  A    between atoms: _38  and  _40
REMARK   16  A    between atoms: _40  and  _41
REMARK   17  A    between atoms: _40  and  _43
REMARK   18  A    between atoms: _43  and  _44
REMARK   19  A    between atoms: _47  and  _49
REMARK   20  A    between atoms: _49  and  _50
REMARK   21  A    between atoms: _52  and  _54
REMARK   22  A    between atoms: _54  and  _55
REMARK   23  A    between atoms: _58  and  _60
REMARK   24  A    between atoms: _60  and  _61
REMARK   25  A    between atoms: _60  and  _63
REMARK   26  A    between atoms: _63  and  _64
REMARK   27  A    between atoms: _67  and  _69
REMARK   28  A    between atoms: _69  and  _70
REMARK   29  A    between atoms: _69  and  _72
REMARK   30  A    between atoms: _72  and  _73
REMARK   31  A    between atoms: _76  and  _78
REMARK   32  A    between atoms: _78  and  _79
REMARK   33  A    between atoms: _78  and  _81
REMARK   34  A    between atoms: _81  and  _82
REMARK   35  A    between atoms: _85  and  _87
REMARK   36  A    between atoms: _87  and  _88
REMARK   37  A    between atoms: _87  and  _90
REMARK   38  A    between atoms: _93  and  _95
REMARK   39  A    between atoms: _95  and  _96
REMARK   40  A    between atoms: _95  and  _98
REMARK   41  A    between atoms: _98  and  _99
REMARK   42  A    between atoms: _99  and  _100
REMARK   43  A    between atoms: _100  and  _101
REMARK   44  A    between atoms: _101  and  _102
REMARK   45  A    between atoms: _106  and  _108
REMARK   46  A    between atoms: _108  and  _109
REMARK   47  A    between atoms: _108  and  _111
REMARK   48  A    between atoms: _111  and  _112
REMARK   49  A    between atoms: _112  and  _113
REMARK   50  A    between atoms: _115  and  _117
REMARK   51  A    between atoms: _117  and  _118
REMARK   52  A    between atoms: _117  and  _120
REMARK   53  A    between atoms: _120  and  _121
REMARK   54  A    between atoms: _124  and  _126
REMARK   55  A    between atoms: _126  and  _127
REMARK   56  A    between atoms: _129  and  _131
REMARK   57  A    between atoms: _131  and  _132
REMARK   58  A    between atoms: _134  and  _136
REMARK   59  A    between atoms: _136  and  _137
REMARK   60  A    between atoms: _136  and  _139
REMARK   61  A    between atoms: _139  and  _140
REMARK   62  A    between atoms: _143  and  _145
REMARK   63  A    between atoms: _145  and  _146
REMARK   64  A    between atoms: _148  and  _150
REMARK   65  A    between atoms: _150  and  _151
REMARK   66  A    between atoms: _153  and  _155
REMARK   67  A    between atoms: _155  and  _156
REMARK   68  A    between atoms: _155  and  _158
REMARK   69  A    between atoms: _158  and  _159
REMARK   70  A    between atoms: _165  and  _167
REMARK   71  A    between atoms: _167  and  _168
REMARK   72  A    between atoms: _167  and  _170
REMARK   73  A    between atoms: _170  and  _171
REMARK   74  A    between atoms: _174  and  _176
REMARK   75  A    between atoms: _176  and  _177
REMARK   76  A    between atoms: _176  and  _179
REMARK   77  A    between atoms: _182  and  _184
REMARK   78  A    between atoms: _184  and  _185
REMARK   79  A    between atoms: _184  and  _187
REMARK   80  A    between atoms: _187  and  _188
REMARK   81  A    between atoms: _191  and  _193
REMARK   82  A    between atoms: _193  and  _194
REMARK   83  A    between atoms: _193  and  _196
REMARK   84  A    between atoms: _196  and  _197
REMARK   85  A    between atoms: _201  and  _202
REMARK   86  A    between atoms: _207  and  _209
REMARK   87  A    between atoms: _209  and  _210
REMARK   88  A    between atoms: _209  and  _212
REMARK   89  A    between atoms: _215  and  _217
REMARK   90  A    between atoms: _217  and  _218
REMARK   91  A    between atoms: _217  and  _220
REMARK   92  A    between atoms: _220  and  _221
REMARK   93  A    between atoms: _226  and  _228
REMARK   94  A    between atoms: _228  and  _229
REMARK   95  A    between atoms: _228  and  _231
REMARK   96  A    between atoms: _231  and  _232
REMARK   97  A    between atoms: _235  and  _237
REMARK   98  A    between atoms: _237  and  _238
REMARK   99  A    between atoms: _240  and  _242
REMARK  100  A    between atoms: _242  and  _243
REMARK  101  A    between atoms: _242  and  _245
REMARK  102  A    between atoms: _245  and  _246
REMARK  103  A    between atoms: _246  and  _247
REMARK  104  A    between atoms: _247  and  _248
REMARK  105  A    between atoms: _257  and  _259
REMARK  106  A    between atoms: _259  and  _260
REMARK  107  A    between atoms: _259  and  _262
REMARK  108  A    between atoms: _262  and  _263
REMARK  109  A    between atoms: _268  and  _270
REMARK  110  A    between atoms: _270  and  _271
REMARK  111  A    between atoms: _270  and  _273
REMARK  112  A    between atoms: _273  and  _274
REMARK  113  A    between atoms: _274  and  _275
REMARK  114  A    between atoms: _275  and  _276
REMARK  115  A    between atoms: _285  and  _287
REMARK  116  A    between atoms: _287  and  _288
REMARK  117  A    between atoms: _287  and  _290
REMARK  118  A    between atoms: _290  and  _291
REMARK  119  A    between atoms: _294  and  _296
REMARK  120  A    between atoms: _296  and  _297
REMARK  121  A    between atoms: _296  and  _299
REMARK  122  A    between atoms: _299  and  _300
REMARK  123  A    between atoms: _303  and  _305
REMARK  124  A    between atoms: _305  and  _306
REMARK  125  A    between atoms: _305  and  _308
REMARK  126  A    between atoms: _308  and  _309
REMARK  127  A    between atoms: _314  and  _316
REMARK  128  A    between atoms: _316  and  _317
REMARK  129  A    between atoms: _316  and  _319
REMARK  130  A    between atoms: _319  and  _320
REMARK  131  A    between atoms: _323  and  _325
REMARK  132  A    between atoms: _325  and  _326
REMARK  133  A    between atoms: _328  and  _330
REMARK  134  A    between atoms: _330  and  _331
REMARK  135  A    between atoms: _334  and  _336
REMARK  136  A    between atoms: _336  and  _337
REMARK  137  A    between atoms: _336  and  _339
REMARK  138  A    between atoms: _339  and  _340
REMARK  139  A    between atoms: _343  and  _345
REMARK  140  A    between atoms: _345  and  _346
REMARK  141  A    between atoms: _345  and  _348
REMARK  142  A    between atoms: _348  and  _349
REMARK  143  A    between atoms: _352  and  _354
REMARK  144  A    between atoms: _354  and  _355
REMARK  145  A    between atoms: _354  and  _357
REMARK  146  A    between atoms: _357  and  _358
REMARK  147  A    between atoms: _361  and  _363
REMARK  148  A    between atoms: _363  and  _364
REMARK  149  A    between atoms: _363  and  _366
REMARK  150  A    between atoms: _369  and  _371
REMARK  151  A    between atoms: _371  and  _372
REMARK  152  A    between atoms: _371  and  _374
REMARK  153  A    between atoms: _374  and  _375
REMARK  154  A    between atoms: _375  and  _376
REMARK  155  A    between atoms: _376  and  _377
REMARK  156  A    between atoms: _377  and  _378
REMARK  157  A    between atoms: _382  and  _384
REMARK  158  A    between atoms: _384  and  _385
REMARK  159  A    between atoms: _384  and  _387
REMARK  160  A    between atoms: _387  and  _388
REMARK  161  A    between atoms: _388  and  _389
REMARK  162  A    between atoms: _391  and  _393
REMARK  163  A    between atoms: _393  and  _394
REMARK  164  A    between atoms: _393  and  _396
REMARK  165  A    between atoms: _396  and  _397
REMARK  166  A    between atoms: _400  and  _402
REMARK  167  A    between atoms: _402  and  _403
REMARK  168  A    between atoms: _405  and  _407
REMARK  169  A    between atoms: _407  and  _408
REMARK  170  A    between atoms: _410  and  _412
REMARK  171  A    between atoms: _412  and  _413
REMARK  172  A    between atoms: _412  and  _415
REMARK  173  A    between atoms: _415  and  _416
REMARK  174  A    between atoms: _419  and  _421
REMARK  175  A    between atoms: _421  and  _422
REMARK  176  A    between atoms: _424  and  _426
REMARK  177  A    between atoms: _426  and  _427
REMARK  178  A    between atoms: _429  and  _431
REMARK  179  A    between atoms: _431  and  _432
REMARK  180  A    between atoms: _431  and  _434
REMARK  181  A    between atoms: _434  and  _435
REMARK  182  A    between atoms: _441  and  _443
REMARK  183  A    between atoms: _443  and  _444
REMARK  184  A    between atoms: _443  and  _446
REMARK  185  A    between atoms: _446  and  _447
REMARK  186  A    between atoms: _450  and  _452
REMARK  187  A    between atoms: _452  and  _453
REMARK  188  A    between atoms: _452  and  _455
REMARK  189  A    between atoms: _458  and  _460
REMARK  190  A    between atoms: _460  and  _461
REMARK  191  A    between atoms: _460  and  _463
REMARK  192  A    between atoms: _463  and  _464
REMARK  193  A    between atoms: _468  and  _469
REMARK  194  A    between atoms: _474  and  _476
REMARK  195  A    between atoms: _476  and  _477
REMARK  196  A    between atoms: _476  and  _479
REMARK  197  A    between atoms: _479  and  _480
REMARK  198  A    between atoms: _484  and  _485
REMARK  199  A    between atoms: _490  and  _492
REMARK  200  A    between atoms: _492  and  _493
REMARK  201  A    between atoms: _492  and  _495
REMARK  202  A    between atoms: _498  and  _500
REMARK  203  A    between atoms: _500  and  _501
REMARK  204  A    between atoms: _500  and  _503
REMARK  205  A    between atoms: _503  and  _504
REMARK  206  A    between atoms: _509  and  _511
REMARK  207  A    between atoms: _511  and  _512
REMARK  208  A    between atoms: _511  and  _514
REMARK  209  A    between atoms: _514  and  _515
REMARK  210  A    between atoms: _518  and  _520
REMARK  211  A    between atoms: _520  and  _521
REMARK  212  A    between atoms: _520  and  _523
REMARK  213  A    between atoms: _523  and  _524
REMARK  214  A    between atoms: _527  and  _529
REMARK  215  A    between atoms: _529  and  _530
REMARK  216  A    between atoms: _532  and  _534
REMARK  217  A    between atoms: _534  and  _535
REMARK  218  A    between atoms: _534  and  _537
REMARK  219  A    between atoms: _537  and  _538
REMARK  220  A    between atoms: _538  and  _539
REMARK  221  A    between atoms: _539  and  _540
REMARK  222  A    between atoms: _549  and  _551
REMARK  223  A    between atoms: _551  and  _552
REMARK  224  A    between atoms: _551  and  _554
REMARK  225  A    between atoms: _554  and  _555
REMARK                            x       y       z     vdW  Elec       q    Type
REMARK                         _______ _______ _______ _____ _____    ______ ____
ROOT
ATOM      1  O   HOH     1       7.290  22.427  12.160  0.00  0.00    +0.000 OA
ENDROOT
TORSDOF 0
REMARK  Name = ../refined-set-2016/3bva/3bva_pocket.pdb
REMARK  225 active torsions:
REMARK  status: ('A' for Active; 'I' for Inactive)
REMARK    1  A    between atoms: _1  and  _3
REMARK    2  A    between atoms: _3  and  _4
REMARK    3  A    between atoms: _3  and  _6
REMARK    4  A    between atoms: _6  and  _7
REMARK    5  A    between atoms: _7  and  _8
REMARK    6  A    between atoms: _8  and  _9
REMARK    7  A    between atoms: _18  and  _20
REMARK    8  A    between atoms: _20  and  _21
REMARK    9  A    between atoms: _20  and  _23
REMARK   10  A    between atoms: _23  and  _24
REMARK   11  A    between atoms: _27  and  _29
REMARK   12  A    between atoms: _29  and  _30
REMARK   13  A    between atoms: _29  and  _32
REMARK   14  A    between atoms: _32  and  _33
REMARK   15  A    between atoms: _38  and  _40
REMARK   16  A    between atoms: _40  and  _41
REMARK   17  A    between atoms: _40  and  _43
REMARK   18  A    between atoms: _43  and  _44
REMARK   19  A    between atoms: _47  and  _49
REMARK   20  A    between atoms: _49  and  _50
REMARK   21  A    between atoms: _52  and  _54
REMARK   22  A    between atoms: _54  and  _55
REMARK   23  A    between atoms: _58  and  _60
REMARK   24  A    between atoms: _60  and  _61
REMARK   25  A    between atoms: _60  and  _63
REMARK   26  A    between atoms: _63  and  _64
REMARK   27  A    between atoms: _67  and  _69
REMARK   28  A    between atoms: _69  and  _70
REMARK   29  A    between atoms: _69  and  _72
REMARK   30  A    between atoms: _72  and  _73
REMARK   31  A    between atoms: _76  and  _78
REMARK   32  A    between atoms: _78  and  _79
REMARK   33  A    between atoms: _78  and  _81
REMARK   34  A    between atoms: _81  and  _82
REMARK   35  A    between atoms: _85  and  _87
REMARK   36  A    between atoms: _87  and  _88
REMARK   37  A    between atoms: _87  and  _90
REMARK   38  A    between atoms: _93  and  _95
REMARK   39  A    between atoms: _95  and  _96
REMARK   40  A    between atoms: _95  and  _98
REMARK   41  A    between atoms: _98  and  _99
REMARK   42  A    between atoms: _99  and  _100
REMARK   43  A    between atoms: _100  and  _101
REMARK   44  A    between atoms: _101  and  _102
REMARK   45  A    between atoms: _106  and  _108
REMARK   46  A    between atoms: _108  and  _109
REMARK   47  A    between atoms: _108  and  _111
REMARK   48  A    between atoms: _111  and  _112
REMARK   49  A    between atoms: _112  and  _113
REMARK   50  A    between atoms: _115  and  _117
REMARK   51  A    between atoms: _117  and  _118
REMARK   52  A    between atoms: _117  and  _120
REMARK   53  A    between atoms: _120  and  _121
REMARK   54  A    between atoms: _124  and  _126
REMARK   55  A    between atoms: _126  and  _127
REMARK   56  A    between atoms: _129  and  _131
REMARK   57  A    between atoms: _131  and  _132
REMARK   58  A    between atoms: _134  and  _136
REMARK   59  A    between atoms: _136  and  _137
REMARK   60  A    between atoms: _136  and  _139
REMARK   61  A    between atoms: _139  and  _140
REMARK   62  A    between atoms: _143  and  _145
REMARK   63  A    between atoms: _145  and  _146
REMARK   64  A    between atoms: _148  and  _150
REMARK   65  A    between atoms: _150  and  _151
REMARK   66  A    between atoms: _153  and  _155
REMARK   67  A    between atoms: _155  and  _156
REMARK   68  A    between atoms: _155  and  _158
REMARK   69  A    between atoms: _158  and  _159
REMARK   70  A    between atoms: _165  and  _167
REMARK   71  A    between atoms: _167  and  _168
REMARK   72  A    between atoms: _167  and  _170
REMARK   73  A    between atoms: _170  and  _171
REMARK   74  A    between atoms: _174  and  _176
REMARK   75  A    between atoms: _176  and  _177
REMARK   76  A    between atoms: _176  and  _179
REMARK   77  A    between atoms: _182  and  _184
REMARK   78  A    between atoms: _184  and  _185
REMARK   79  A    between atoms: _184  and  _187
REMARK   80  A    between atoms: _187  and  _188
REMARK   81  A    between atoms: _191  and  _193
REMARK   82  A    between atoms: _193  and  _194
REMARK   83  A    between atoms: _193  and  _196
REMARK   84  A    between atoms: _196  and  _197
REMARK   85  A    between atoms: _201  and  _202
REMARK   86  A    between atoms: _207  and  _209
REMARK   87  A    between atoms: _209  and  _210
REMARK   88  A    between atoms: _209  and  _212
REMARK   89  A    between atoms: _215  and  _217
REMARK   90  A    between atoms: _217  and  _218
REMARK   91  A    between atoms: _217  and  _220
REMARK   92  A    between atoms: _220  and  _221
REMARK   93  A    between atoms: _226  and  _228
REMARK   94  A    between atoms: _228  and  _229
REMARK   95  A    between atoms: _228  and  _231
REMARK   96  A    between atoms: _231  and  _232
REMARK   97  A    between atoms: _235  and  _237
REMARK   98  A    between atoms: _237  and  _238
REMARK   99  A    between atoms: _240  and  _242
REMARK  100  A    between atoms: _242  and  _243
REMARK  101  A    between atoms: _242  and  _245
REMARK  102  A    between atoms: _245  and  _246
REMARK  103  A    between atoms: _246  and  _247
REMARK  104  A    between atoms: _247  and  _248
REMARK  105  A    between atoms: _257  and  _259
REMARK  106  A    between atoms: _259  and  _260
REMARK  107  A    between atoms: _259  and  _262
REMARK  108  A    between atoms: _262  and  _263
REMARK  109  A    between atoms: _268  and  _270
REMARK  110  A    between atoms: _270  and  _271
REMARK  111  A    between atoms: _270  and  _273
REMARK  112  A    between atoms: _273  and  _274
REMARK  113  A    between atoms: _274  and  _275
REMARK  114  A    between atoms: _275  and  _276
REMARK  115  A    between atoms: _285  and  _287
REMARK  116  A    between atoms: _287  and  _288
REMARK  117  A    between atoms: _287  and  _290
REMARK  118  A    between atoms: _290  and  _291
REMARK  119  A    between atoms: _294  and  _296
REMARK  120  A    between atoms: _296  and  _297
REMARK  121  A    between atoms: _296  and  _299
REMARK  122  A    between atoms: _299  and  _300
REMARK  123  A    between atoms: _303  and  _305
REMARK  124  A    between atoms: _305  and  _306
REMARK  125  A    between atoms: _305  and  _308
REMARK  126  A    between atoms: _308  and  _309
REMARK  127  A    between atoms: _314  and  _316
REMARK  128  A    between atoms: _316  and  _317
REMARK  129  A    between atoms: _316  and  _319
REMARK  130  A    between atoms: _319  and  _320
REMARK  131  A    between atoms: _323  and  _325
REMARK  132  A    between atoms: _325  and  _326
REMARK  133  A    between atoms: _328  and  _330
REMARK  134  A    between atoms: _330  and  _331
REMARK  135  A    between atoms: _334  and  _336
REMARK  136  A    between atoms: _336  and  _337
REMARK  137  A    between atoms: _336  and  _339
REMARK  138  A    between atoms: _339  and  _340
REMARK  139  A    between atoms: _343  and  _345
REMARK  140  A    between atoms: _345  and  _346
REMARK  141  A    between atoms: _345  and  _348
REMARK  142  A    between atoms: _348  and  _349
REMARK  143  A    between atoms: _352  and  _354
REMARK  144  A    between atoms: _354  and  _355
REMARK  145  A    between atoms: _354  and  _357
REMARK  146  A    between atoms: _357  and  _358
REMARK  147  A    between atoms: _361  and  _363
REMARK  148  A    between atoms: _363  and  _364
REMARK  149  A    between atoms: _363  and  _366
REMARK  150  A    between atoms: _369  and  _371
REMARK  151  A    between atoms: _371  and  _372
REMARK  152  A    between atoms: _371  and  _374
REMARK  153  A    between atoms: _374  and  _375
REMARK  154  A    between atoms: _375  and  _376
REMARK  155  A    between atoms: _376  and  _377
REMARK  156  A    between atoms: _377  and  _378
REMARK  157  A    between atoms: _382  and  _384
REMARK  158  A    between atoms: _384  and  _385
REMARK  159  A    between atoms: _384  and  _387
REMARK  160  A    between atoms: _387  and  _388
REMARK  161  A    between atoms: _388  and  _389
REMARK  162  A    between atoms: _391  and  _393
REMARK  163  A    between atoms: _393  and  _394
REMARK  164  A    between atoms: _393  and  _396
REMARK  165  A    between atoms: _396  and  _397
REMARK  166  A    between atoms: _400  and  _402
REMARK  167  A    between atoms: _402  and  _403
REMARK  168  A    between atoms: _405  and  _407
REMARK  169  A    between atoms: _407  and  _408
REMARK  170  A    between atoms: _410  and  _412
REMARK  171  A    between atoms: _412  and  _413
REMARK  172  A    between atoms: _412  and  _415
REMARK  173  A    between atoms: _415  and  _416
REMARK  174  A    between atoms: _419  and  _421
REMARK  175  A    between atoms: _421  and  _422
REMARK  176  A    between atoms: _424  and  _426
REMARK  177  A    between atoms: _426  and  _427
REMARK  178  A    between atoms: _429  and  _431
REMARK  179  A    between atoms: _431  and  _432
REMARK  180  A    between atoms: _431  and  _434
REMARK  181  A    between atoms: _434  and  _435
REMARK  182  A    between atoms: _441  and  _443
REMARK  183  A    between atoms: _443  and  _444
REMARK  184  A    between atoms: _443  and  _446
REMARK  185  A    between atoms: _446  and  _447
REMARK  186  A    between atoms: _450  and  _452
REMARK  187  A    between atoms: _452  and  _453
REMARK  188  A    between atoms: _452  and  _455
REMARK  189  A    between atoms: _458  and  _460
REMARK  190  A    between atoms: _460  and  _461
REMARK  191  A    between atoms: _460  and  _463
REMARK  192  A    between atoms: _463  and  _464
REMARK  193  A    between atoms: _468  and  _469
REMARK  194  A    between atoms: _474  and  _476
REMARK  195  A    between atoms: _476  and  _477
REMARK  196  A    between atoms: _476  and  _479
REMARK  197  A    between atoms: _479  and  _480
REMARK  198  A    between atoms: _484  and  _485
REMARK  199  A    between atoms: _490  and  _492
REMARK  200  A    between atoms: _492  and  _493
REMARK  201  A    between atoms: _492  and  _495
REMARK  202  A    between atoms: _498  and  _500
REMARK  203  A    between atoms: _500  and  _501
REMARK  204  A    between atoms: _500  and  _503
REMARK  205  A    between atoms: _503  and  _504
REMARK  206  A    between atoms: _509  and  _511
REMARK  207  A    between atoms: _511  and  _512
REMARK  208  A    between atoms: _511  and  _514
REMARK  209  A    between atoms: _514  and  _515
REMARK  210  A    between atoms: _518  and  _520
REMARK  211  A    between atoms: _520  and  _521
REMARK  212  A    between atoms: _520  and  _523
REMARK  213  A    between atoms: _523  and  _524
REMARK  214  A    between atoms: _527  and  _529
REMARK  215  A    between atoms: _529  and  _530
REMARK  216  A    between atoms: _532  and  _534
REMARK  217  A    between atoms: _534  and  _535
REMARK  218  A    between atoms: _534  and  _537
REMARK  219  A    between atoms: _537  and  _538
REMARK  220  A    between atoms: _538  and  _539
REMARK  221  A    between atoms: _539  and  _540
REMARK  222  A    between atoms: _549  and  _551
REMARK  223  A    between atoms: _551  and  _552
REMARK  224  A    between atoms: _551  and  _554
REMARK  225  A    between atoms: _554  and  _555
REMARK                            x       y       z     vdW  Elec       q    Type
REMARK                         _______ _______ _______ _____ _____    ______ ____
ROOT
ATOM      1  O   HOH     1      12.887  16.027  11.872  0.00  0.00    +0.000 OA
ENDROOT
TORSDOF 0
REMARK  Name = ../refined-set-2016/3bva/3bva_pocket.pdb
REMARK  225 active torsions:
REMARK  status: ('A' for Active; 'I' for Inactive)
REMARK    1  A    between atoms: _1  and  _3
REMARK    2  A    between atoms: _3  and  _4
REMARK    3  A    between atoms: _3  and  _6
REMARK    4  A    between atoms: _6  and  _7
REMARK    5  A    between atoms: _7  and  _8
REMARK    6  A    between atoms: _8  and  _9
REMARK    7  A    between atoms: _18  and  _20
REMARK    8  A    between atoms: _20  and  _21
REMARK    9  A    between atoms: _20  and  _23
REMARK   10  A    between atoms: _23  and  _24
REMARK   11  A    between atoms: _27  and  _29
REMARK   12  A    between atoms: _29  and  _30
REMARK   13  A    between atoms: _29  and  _32
REMARK   14  A    between atoms: _32  and  _33
REMARK   15  A    between atoms: _38  and  _40
REMARK   16  A    between atoms: _40  and  _41
REMARK   17  A    between atoms: _40  and  _43
REMARK   18  A    between atoms: _43  and  _44
REMARK   19  A    between atoms: _47  and  _49
REMARK   20  A    between atoms: _49  and  _50
REMARK   21  A    between atoms: _52  and  _54
REMARK   22  A    between atoms: _54  and  _55
REMARK   23  A    between atoms: _58  and  _60
REMARK   24  A    between atoms: _60  and  _61
REMARK   25  A    between atoms: _60  and  _63
REMARK   26  A    between atoms: _63  and  _64
REMARK   27  A    between atoms: _67  and  _69
REMARK   28  A    between atoms: _69  and  _70
REMARK   29  A    between atoms: _69  and  _72
REMARK   30  A    between atoms: _72  and  _73
REMARK   31  A    between atoms: _76  and  _78
REMARK   32  A    between atoms: _78  and  _79
REMARK   33  A    between atoms: _78  and  _81
REMARK   34  A    between atoms: _81  and  _82
REMARK   35  A    between atoms: _85  and  _87
REMARK   36  A    between atoms: _87  and  _88
REMARK   37  A    between atoms: _87  and  _90
REMARK   38  A    between atoms: _93  and  _95
REMARK   39  A    between atoms: _95  and  _96
REMARK   40  A    between atoms: _95  and  _98
REMARK   41  A    between atoms: _98  and  _99
REMARK   42  A    between atoms: _99  and  _100
REMARK   43  A    between atoms: _100  and  _101
REMARK   44  A    between atoms: _101  and  _102
REMARK   45  A    between atoms: _106  and  _108
REMARK   46  A    between atoms: _108  and  _109
REMARK   47  A    between atoms: _108  and  _111
REMARK   48  A    between atoms: _111  and  _112
REMARK   49  A    between atoms: _112  and  _113
REMARK   50  A    between atoms: _115  and  _117
REMARK   51  A    between atoms: _117  and  _118
REMARK   52  A    between atoms: _117  and  _120
REMARK   53  A    between atoms: _120  and  _121
REMARK   54  A    between atoms: _124  and  _126
REMARK   55  A    between atoms: _126  and  _127
REMARK   56  A    between atoms: _129  and  _131
REMARK   57  A    between atoms: _131  and  _132
REMARK   58  A    between atoms: _134  and  _136
REMARK   59  A    between atoms: _136  and  _137
REMARK   60  A    between atoms: _136  and  _139
REMARK   61  A    between atoms: _139  and  _140
REMARK   62  A    between atoms: _143  and  _145
REMARK   63  A    between atoms: _145  and  _146
REMARK   64  A    between atoms: _148  and  _150
REMARK   65  A    between atoms: _150  and  _151
REMARK   66  A    between atoms: _153  and  _155
REMARK   67  A    between atoms: _155  and  _156
REMARK   68  A    between atoms: _155  and  _158
REMARK   69  A    between atoms: _158  and  _159
REMARK   70  A    between atoms: _165  and  _167
REMARK   71  A    between atoms: _167  and  _168
REMARK   72  A    between atoms: _167  and  _170
REMARK   73  A    between atoms: _170  and  _171
REMARK   74  A    between atoms: _174  and  _176
REMARK   75  A    between atoms: _176  and  _177
REMARK   76  A    between atoms: _176  and  _179
REMARK   77  A    between atoms: _182  and  _184
REMARK   78  A    between atoms: _184  and  _185
REMARK   79  A    between atoms: _184  and  _187
REMARK   80  A    between atoms: _187  and  _188
REMARK   81  A    between atoms: _191  and  _193
REMARK   82  A    between atoms: _193  and  _194
REMARK   83  A    between atoms: _193  and  _196
REMARK   84  A    between atoms: _196  and  _197
REMARK   85  A    between atoms: _201  and  _202
REMARK   86  A    between atoms: _207  and  _209
REMARK   87  A    between atoms: _209  and  _210
REMARK   88  A    between atoms: _209  and  _212
REMARK   89  A    between atoms: _215  and  _217
REMARK   90  A    between atoms: _217  and  _218
REMARK   91  A    between atoms: _217  and  _220
REMARK   92  A    between atoms: _220  and  _221
REMARK   93  A    between atoms: _226  and  _228
REMARK   94  A    between atoms: _228  and  _229
REMARK   95  A    between atoms: _228  and  _231
REMARK   96  A    between atoms: _231  and  _232
REMARK   97  A    between atoms: _235  and  _237
REMARK   98  A    between atoms: _237  and  _238
REMARK   99  A    between atoms: _240  and  _242
REMARK  100  A    between atoms: _242  and  _243
REMARK  101  A    between atoms: _242  and  _245
REMARK  102  A    between atoms: _245  and  _246
REMARK  103  A    between atoms: _246  and  _247
REMARK  104  A    between atoms: _247  and  _248
REMARK  105  A    between atoms: _257  and  _259
REMARK  106  A    between atoms: _259  and  _260
REMARK  107  A    between atoms: _259  and  _262
REMARK  108  A    between atoms: _262  and  _263
REMARK  109  A    between atoms: _268  and  _270
REMARK  110  A    between atoms: _270  and  _271
REMARK  111  A    between atoms: _270  and  _273
REMARK  112  A    between atoms: _273  and  _274
REMARK  113  A    between atoms: _274  and  _275
REMARK  114  A    between atoms: _275  and  _276
REMARK  115  A    between atoms: _285  and  _287
REMARK  116  A    between atoms: _287  and  _288
REMARK  117  A    between atoms: _287  and  _290
REMARK  118  A    between atoms: _290  and  _291
REMARK  119  A    between atoms: _294  and  _296
REMARK  120  A    between atoms: _296  and  _297
REMARK  121  A    between atoms: _296  and  _299
REMARK  122  A    between atoms: _299  and  _300
REMARK  123  A    between atoms: _303  and  _305
REMARK  124  A    between atoms: _305  and  _306
REMARK  125  A    between atoms: _305  and  _308
REMARK  126  A    between atoms: _308  and  _309
REMARK  127  A    between atoms: _314  and  _316
REMARK  128  A    between atoms: _316  and  _317
REMARK  129  A    between atoms: _316  and  _319
REMARK  130  A    between atoms: _319  and  _320
REMARK  131  A    between atoms: _323  and  _325
REMARK  132  A    between atoms: _325  and  _326
REMARK  133  A    between atoms: _328  and  _330
REMARK  134  A    between atoms: _330  and  _331
REMARK  135  A    between atoms: _334  and  _336
REMARK  136  A    between atoms: _336  and  _337
REMARK  137  A    between atoms: _336  and  _339
REMARK  138  A    between atoms: _339  and  _340
REMARK  139  A    between atoms: _343  and  _345
REMARK  140  A    between atoms: _345  and  _346
REMARK  141  A    between atoms: _345  and  _348
REMARK  142  A    between atoms: _348  and  _349
REMARK  143  A    between atoms: _352  and  _354
REMARK  144  A    between atoms: _354  and  _355
REMARK  145  A    between atoms: _354  and  _357
REMARK  146  A    between atoms: _357  and  _358
REMARK  147  A    between atoms: _361  and  _363
REMARK  148  A    between atoms: _363  and  _364
REMARK  149  A    between atoms: _363  and  _366
REMARK  150  A    between atoms: _369  and  _371
REMARK  151  A    between atoms: _371  and  _372
REMARK  152  A    between atoms: _371  and  _374
REMARK  153  A    between atoms: _374  and  _375
REMARK  154  A    between atoms: _375  and  _376
REMARK  155  A    between atoms: _376  and  _377
REMARK  156  A    between atoms: _377  and  _378
REMARK  157  A    between atoms: _382  and  _384
REMARK  158  A    between atoms: _384  and  _385
REMARK  159  A    between atoms: _384  and  _387
REMARK  160  A    between atoms: _387  and  _388
REMARK  161  A    between atoms: _388  and  _389
REMARK  162  A    between atoms: _391  and  _393
REMARK  163  A    between atoms: _393  and  _394
REMARK  164  A    between atoms: _393  and  _396
REMARK  165  A    between atoms: _396  and  _397
REMARK  166  A    between atoms: _400  and  _402
REMARK  167  A    between atoms: _402  and  _403
REMARK  168  A    between atoms: _405  and  _407
REMARK  169  A    between atoms: _407  and  _408
REMARK  170  A    between atoms: _410  and  _412
REMARK  171  A    between atoms: _412  and  _413
REMARK  172  A    between atoms: _412  and  _415
REMARK  173  A    between atoms: _415  and  _416
REMARK  174  A    between atoms: _419  and  _421
REMARK  175  A    between atoms: _421  and  _422
REMARK  176  A    between atoms: _424  and  _426
REMARK  177  A    between atoms: _426  and  _427
REMARK  178  A    between atoms: _429  and  _431
REMARK  179  A    between atoms: _431  and  _432
REMARK  180  A    between atoms: _431  and  _434
REMARK  181  A    between atoms: _434  and  _435
REMARK  182  A    between atoms: _441  and  _443
REMARK  183  A    between atoms: _443  and  _444
REMARK  184  A    between atoms: _443  and  _446
REMARK  185  A    between atoms: _446  and  _447
REMARK  186  A    between atoms: _450  and  _452
REMARK  187  A    between atoms: _452  and  _453
REMARK  188  A    between atoms: _452  and  _455
REMARK  189  A    between atoms: _458  and  _460
REMARK  190  A    between atoms: _460  and  _461
REMARK  191  A    between atoms: _460  and  _463
REMARK  192  A    between atoms: _463  and  _464
REMARK  193  A    between atoms: _468  and  _469
REMARK  194  A    between atoms: _474  and  _476
REMARK  195  A    between atoms: _476  and  _477
REMARK  196  A    between atoms: _476  and  _479
REMARK  197  A    between atoms: _479  and  _480
REMARK  198  A    between atoms: _484  and  _485
REMARK  199  A    between atoms: _490  and  _492
REMARK  200  A    between atoms: _492  and  _493
REMARK  201  A    between atoms: _492  and  _495
REMARK  202  A    between atoms: _498  and  _500
REMARK  203  A    between atoms: _500  and  _501
REMARK  204  A    between atoms: _500  and  _503
REMARK  205  A    between atoms: _503  and  _504
REMARK  206  A    between atoms: _509  and  _511
REMARK  207  A    between atoms: _511  and  _512
REMARK  208  A    between atoms: _511  and  _514
REMARK  209  A    between atoms: _514  and  _515
REMARK  210  A    between atoms: _518  and  _520
REMARK  211  A    between atoms: _520  and  _521
REMARK  212  A    between atoms: _520  and  _523
REMARK  213  A    between atoms: _523  and  _524
REMARK  214  A    between atoms: _527  and  _529
REMARK  215  A    between atoms: _529  and  _530
REMARK  216  A    between atoms: _532  and  _534
REMARK  217  A    between atoms: _534  and  _535
REMARK  218  A    between atoms: _534  and  _537
REMARK  219  A    between atoms: _537  and  _538
REMARK  220  A    between atoms: _538  and  _539
REMARK  221  A    between atoms: _539  and  _540
REMARK  222  A    between atoms: _549  and  _551
REMARK  223  A    between atoms: _551  and  _552
REMARK  224  A    between atoms: _551  and  _554
REMARK  225  A    between atoms: _554  and  _555
REMARK                            x       y       z     vdW  Elec       q    Type
REMARK                         _______ _______ _______ _____ _____    ______ ____
ROOT
ATOM      1  O   HOH     1       4.962  15.938  21.944  0.00  0.00    +0.000 OA
ENDROOT
TORSDOF 0
REMARK  Name = ../refined-set-2016/3bva/3bva_pocket.pdb
REMARK  225 active torsions:
REMARK  status: ('A' for Active; 'I' for Inactive)
REMARK    1  A    between atoms: _1  and  _3
REMARK    2  A    between atoms: _3  and  _4
REMARK    3  A    between atoms: _3  and  _6
REMARK    4  A    between atoms: _6  and  _7
REMARK    5  A    between atoms: _7  and  _8
REMARK    6  A    between atoms: _8  and  _9
REMARK    7  A    between atoms: _18  and  _20
REMARK    8  A    between atoms: _20  and  _21
REMARK    9  A    between atoms: _20  and  _23
REMARK   10  A    between atoms: _23  and  _24
REMARK   11  A    between atoms: _27  and  _29
REMARK   12  A    between atoms: _29  and  _30
REMARK   13  A    between atoms: _29  and  _32
REMARK   14  A    between atoms: _32  and  _33
REMARK   15  A    between atoms: _38  and  _40
REMARK   16  A    between atoms: _40  and  _41
REMARK   17  A    between atoms: _40  and  _43
REMARK   18  A    between atoms: _43  and  _44
REMARK   19  A    between atoms: _47  and  _49
REMARK   20  A    between atoms: _49  and  _50
REMARK   21  A    between atoms: _52  and  _54
REMARK   22  A    between atoms: _54  and  _55
REMARK   23  A    between atoms: _58  and  _60
REMARK   24  A    between atoms: _60  and  _61
REMARK   25  A    between atoms: _60  and  _63
REMARK   26  A    between atoms: _63  and  _64
REMARK   27  A    between atoms: _67  and  _69
REMARK   28  A    between atoms: _69  and  _70
REMARK   29  A    between atoms: _69  and  _72
REMARK   30  A    between atoms: _72  and  _73
REMARK   31  A    between atoms: _76  and  _78
REMARK   32  A    between atoms: _78  and  _79
REMARK   33  A    between atoms: _78  and  _81
REMARK   34  A    between atoms: _81  and  _82
REMARK   35  A    between atoms: _85  and  _87
REMARK   36  A    between atoms: _87  and  _88
REMARK   37  A    between atoms: _87  and  _90
REMARK   38  A    between atoms: _93  and  _95
REMARK   39  A    between atoms: _95  and  _96
REMARK   40  A    between atoms: _95  and  _98
REMARK   41  A    between atoms: _98  and  _99
REMARK   42  A    between atoms: _99  and  _100
REMARK   43  A    between atoms: _100  and  _101
REMARK   44  A    between atoms: _101  and  _102
REMARK   45  A    between atoms: _106  and  _108
REMARK   46  A    between atoms: _108  and  _109
REMARK   47  A    between atoms: _108  and  _111
REMARK   48  A    between atoms: _111  and  _112
REMARK   49  A    between atoms: _112  and  _113
REMARK   50  A    between atoms: _115  and  _117
REMARK   51  A    between atoms: _117  and  _118
REMARK   52  A    between atoms: _117  and  _120
REMARK   53  A    between atoms: _120  and  _121
REMARK   54  A    between atoms: _124  and  _126
REMARK   55  A    between atoms: _126  and  _127
REMARK   56  A    between atoms: _129  and  _131
REMARK   57  A    between atoms: _131  and  _132
REMARK   58  A    between atoms: _134  and  _136
REMARK   59  A    between atoms: _136  and  _137
REMARK   60  A    between atoms: _136  and  _139
REMARK   61  A    between atoms: _139  and  _140
REMARK   62  A    between atoms: _143  and  _145
REMARK   63  A    between atoms: _145  and  _146
REMARK   64  A    between atoms: _148  and  _150
REMARK   65  A    between atoms: _150  and  _151
REMARK   66  A    between atoms: _153  and  _155
REMARK   67  A    between atoms: _155  and  _156
REMARK   68  A    between atoms: _155  and  _158
REMARK   69  A    between atoms: _158  and  _159
REMARK   70  A    between atoms: _165  and  _167
REMARK   71  A    between atoms: _167  and  _168
REMARK   72  A    between atoms: _167  and  _170
REMARK   73  A    between atoms: _170  and  _171
REMARK   74  A    between atoms: _174  and  _176
REMARK   75  A    between atoms: _176  and  _177
REMARK   76  A    between atoms: _176  and  _179
REMARK   77  A    between atoms: _182  and  _184
REMARK   78  A    between atoms: _184  and  _185
REMARK   79  A    between atoms: _184  and  _187
REMARK   80  A    between atoms: _187  and  _188
REMARK   81  A    between atoms: _191  and  _193
REMARK   82  A    between atoms: _193  and  _194
REMARK   83  A    between atoms: _193  and  _196
REMARK   84  A    between atoms: _196  and  _197
REMARK   85  A    between atoms: _201  and  _202
REMARK   86  A    between atoms: _207  and  _209
REMARK   87  A    between atoms: _209  and  _210
REMARK   88  A    between atoms: _209  and  _212
REMARK   89  A    between atoms: _215  and  _217
REMARK   90  A    between atoms: _217  and  _218
REMARK   91  A    between atoms: _217  and  _220
REMARK   92  A    between atoms: _220  and  _221
REMARK   93  A    between atoms: _226  and  _228
REMARK   94  A    between atoms: _228  and  _229
REMARK   95  A    between atoms: _228  and  _231
REMARK   96  A    between atoms: _231  and  _232
REMARK   97  A    between atoms: _235  and  _237
REMARK   98  A    between atoms: _237  and  _238
REMARK   99  A    between atoms: _240  and  _242
REMARK  100  A    between atoms: _242  and  _243
REMARK  101  A    between atoms: _242  and  _245
REMARK  102  A    between atoms: _245  and  _246
REMARK  103  A    between atoms: _246  and  _247
REMARK  104  A    between atoms: _247  and  _248
REMARK  105  A    between atoms: _257  and  _259
REMARK  106  A    between atoms: _259  and  _260
REMARK  107  A    between atoms: _259  and  _262
REMARK  108  A    between atoms: _262  and  _263
REMARK  109  A    between atoms: _268  and  _270
REMARK  110  A    between atoms: _270  and  _271
REMARK  111  A    between atoms: _270  and  _273
REMARK  112  A    between atoms: _273  and  _274
REMARK  113  A    between atoms: _274  and  _275
REMARK  114  A    between atoms: _275  and  _276
REMARK  115  A    between atoms: _285  and  _287
REMARK  116  A    between atoms: _287  and  _288
REMARK  117  A    between atoms: _287  and  _290
REMARK  118  A    between atoms: _290  and  _291
REMARK  119  A    between atoms: _294  and  _296
REMARK  120  A    between atoms: _296  and  _297
REMARK  121  A    between atoms: _296  and  _299
REMARK  122  A    between atoms: _299  and  _300
REMARK  123  A    between atoms: _303  and  _305
REMARK  124  A    between atoms: _305  and  _306
REMARK  125  A    between atoms: _305  and  _308
REMARK  126  A    between atoms: _308  and  _309
REMARK  127  A    between atoms: _314  and  _316
REMARK  128  A    between atoms: _316  and  _317
REMARK  129  A    between atoms: _316  and  _319
REMARK  130  A    between atoms: _319  and  _320
REMARK  131  A    between atoms: _323  and  _325
REMARK  132  A    between atoms: _325  and  _326
REMARK  133  A    between atoms: _328  and  _330
REMARK  134  A    between atoms: _330  and  _331
REMARK  135  A    between atoms: _334  and  _336
REMARK  136  A    between atoms: _336  and  _337
REMARK  137  A    between atoms: _336  and  _339
REMARK  138  A    between atoms: _339  and  _340
REMARK  139  A    between atoms: _343  and  _345
REMARK  140  A    between atoms: _345  and  _346
REMARK  141  A    between atoms: _345  and  _348
REMARK  142  A    between atoms: _348  and  _349
REMARK  143  A    between atoms: _352  and  _354
REMARK  144  A    between atoms: _354  and  _355
REMARK  145  A    between atoms: _354  and  _357
REMARK  146  A    between atoms: _357  and  _358
REMARK  147  A    between atoms: _361  and  _363
REMARK  148  A    between atoms: _363  and  _364
REMARK  149  A    between atoms: _363  and  _366
REMARK  150  A    between atoms: _369  and  _371
REMARK  151  A    between atoms: _371  and  _372
REMARK  152  A    between atoms: _371  and  _374
REMARK  153  A    between atoms: _374  and  _375
REMARK  154  A    between atoms: _375  and  _376
REMARK  155  A    between atoms: _376  and  _377
REMARK  156  A    between atoms: _377  and  _378
REMARK  157  A    between atoms: _382  and  _384
REMARK  158  A    between atoms: _384  and  _385
REMARK  159  A    between atoms: _384  and  _387
REMARK  160  A    between atoms: _387  and  _388
REMARK  161  A    between atoms: _388  and  _389
REMARK  162  A    between atoms: _391  and  _393
REMARK  163  A    between atoms: _393  and  _394
REMARK  164  A    between atoms: _393  and  _396
REMARK  165  A    between atoms: _396  and  _397
REMARK  166  A    between atoms: _400  and  _402
REMARK  167  A    between atoms: _402  and  _403
REMARK  168  A    between atoms: _405  and  _407
REMARK  169  A    between atoms: _407  and  _408
REMARK  170  A    between atoms: _410  and  _412
REMARK  171  A    between atoms: _412  and  _413
REMARK  172  A    between atoms: _412  and  _415
REMARK  173  A    between atoms: _415  and  _416
REMARK  174  A    between atoms: _419  and  _421
REMARK  175  A    between atoms: _421  and  _422
REMARK  176  A    between atoms: _424  and  _426
REMARK  177  A    between atoms: _426  and  _427
REMARK  178  A    between atoms: _429  and  _431
REMARK  179  A    between atoms: _431  and  _432
REMARK  180  A    between atoms: _431  and  _434
REMARK  181  A    between atoms: _434  and  _435
REMARK  182  A    between atoms: _441  and  _443
REMARK  183  A    between atoms: _443  and  _444
REMARK  184  A    between atoms: _443  and  _446
REMARK  185  A    between atoms: _446  and  _447
REMARK  186  A    between atoms: _450  and  _452
REMARK  187  A    between atoms: _452  and  _453
REMARK  188  A    between atoms: _452  and  _455
REMARK  189  A    between atoms: _458  and  _460
REMARK  190  A    between atoms: _460  and  _461
REMARK  191  A    between atoms: _460  and  _463
REMARK  192  A    between atoms: _463  and  _464
REMARK  193  A    between atoms: _468  and  _469
REMARK  194  A    between atoms: _474  and  _476
REMARK  195  A    between atoms: _476  and  _477
REMARK  196  A    between atoms: _476  and  _479
REMARK  197  A    between atoms: _479  and  _480
REMARK  198  A    between atoms: _484  and  _485
REMARK  199  A    between atoms: _490  and  _492
REMARK  200  A    between atoms: _492  and  _493
REMARK  201  A    between atoms: _492  and  _495
REMARK  202  A    between atoms: _498  and  _500
REMARK  203  A    between atoms: _500  and  _501
REMARK  204  A    between atoms: _500  and  _503
REMARK  205  A    between atoms: _503  and  _504
REMARK  206  A    between atoms: _509  and  _511
REMARK  207  A    between atoms: _511  and  _512
REMARK  208  A    between atoms: _511  and  _514
REMARK  209  A    between atoms: _514  and  _515
REMARK  210  A    between atoms: _518  and  _520
REMARK  211  A    between atoms: _520  and  _521
REMARK  212  A    between atoms: _520  and  _523
REMARK  213  A    between atoms: _523  and  _524
REMARK  214  A    between atoms: _527  and  _529
REMARK  215  A    between atoms: _529  and  _530
REMARK  216  A    between atoms: _532  and  _534
REMARK  217  A    between atoms: _534  and  _535
REMARK  218  A    between atoms: _534  and  _537
REMARK  219  A    between atoms: _537  and  _538
REMARK  220  A    between atoms: _538  and  _539
REMARK  221  A    between atoms: _539  and  _540
REMARK  222  A    between atoms: _549  and  _551
REMARK  223  A    between atoms: _551  and  _552
REMARK  224  A    between atoms: _551  and  _554
REMARK  225  A    between atoms: _554  and  _555
REMARK                            x       y       z     vdW  Elec       q    Type
REMARK                         _______ _______ _______ _____ _____    ______ ____
ROOT
ATOM      1  O   HOH     1      12.306  15.505   9.206  0.00  0.00    +0.000 OA
ENDROOT
TORSDOF 0
REMARK  Name = ../refined-set-2016/3bva/3bva_pocket.pdb
REMARK  225 active torsions:
REMARK  status: ('A' for Active; 'I' for Inactive)
REMARK    1  A    between atoms: _1  and  _3
REMARK    2  A    between atoms: _3  and  _4
REMARK    3  A    between atoms: _3  and  _6
REMARK    4  A    between atoms: _6  and  _7
REMARK    5  A    between atoms: _7  and  _8
REMARK    6  A    between atoms: _8  and  _9
REMARK    7  A    between atoms: _18  and  _20
REMARK    8  A    between atoms: _20  and  _21
REMARK    9  A    between atoms: _20  and  _23
REMARK   10  A    between atoms: _23  and  _24
REMARK   11  A    between atoms: _27  and  _29
REMARK   12  A    between atoms: _29  and  _30
REMARK   13  A    between atoms: _29  and  _32
REMARK   14  A    between atoms: _32  and  _33
REMARK   15  A    between atoms: _38  and  _40
REMARK   16  A    between atoms: _40  and  _41
REMARK   17  A    between atoms: _40  and  _43
REMARK   18  A    between atoms: _43  and  _44
REMARK   19  A    between atoms: _47  and  _49
REMARK   20  A    between atoms: _49  and  _50
REMARK   21  A    between atoms: _52  and  _54
REMARK   22  A    between atoms: _54  and  _55
REMARK   23  A    between atoms: _58  and  _60
REMARK   24  A    between atoms: _60  and  _61
REMARK   25  A    between atoms: _60  and  _63
REMARK   26  A    between atoms: _63  and  _64
REMARK   27  A    between atoms: _67  and  _69
REMARK   28  A    between atoms: _69  and  _70
REMARK   29  A    between atoms: _69  and  _72
REMARK   30  A    between atoms: _72  and  _73
REMARK   31  A    between atoms: _76  and  _78
REMARK   32  A    between atoms: _78  and  _79
REMARK   33  A    between atoms: _78  and  _81
REMARK   34  A    between atoms: _81  and  _82
REMARK   35  A    between atoms: _85  and  _87
REMARK   36  A    between atoms: _87  and  _88
REMARK   37  A    between atoms: _87  and  _90
REMARK   38  A    between atoms: _93  and  _95
REMARK   39  A    between atoms: _95  and  _96
REMARK   40  A    between atoms: _95  and  _98
REMARK   41  A    between atoms: _98  and  _99
REMARK   42  A    between atoms: _99  and  _100
REMARK   43  A    between atoms: _100  and  _101
REMARK   44  A    between atoms: _101  and  _102
REMARK   45  A    between atoms: _106  and  _108
REMARK   46  A    between atoms: _108  and  _109
REMARK   47  A    between atoms: _108  and  _111
REMARK   48  A    between atoms: _111  and  _112
REMARK   49  A    between atoms: _112  and  _113
REMARK   50  A    between atoms: _115  and  _117
REMARK   51  A    between atoms: _117  and  _118
REMARK   52  A    between atoms: _117  and  _120
REMARK   53  A    between atoms: _120  and  _121
REMARK   54  A    between atoms: _124  and  _126
REMARK   55  A    between atoms: _126  and  _127
REMARK   56  A    between atoms: _129  and  _131
REMARK   57  A    between atoms: _131  and  _132
REMARK   58  A    between atoms: _134  and  _136
REMARK   59  A    between atoms: _136  and  _137
REMARK   60  A    between atoms: _136  and  _139
REMARK   61  A    between atoms: _139  and  _140
REMARK   62  A    between atoms: _143  and  _145
REMARK   63  A    between atoms: _145  and  _146
REMARK   64  A    between atoms: _148  and  _150
REMARK   65  A    between atoms: _150  and  _151
REMARK   66  A    between atoms: _153  and  _155
REMARK   67  A    between atoms: _155  and  _156
REMARK   68  A    between atoms: _155  and  _158
REMARK   69  A    between atoms: _158  and  _159
REMARK   70  A    between atoms: _165  and  _167
REMARK   71  A    between atoms: _167  and  _168
REMARK   72  A    between atoms: _167  and  _170
REMARK   73  A    between atoms: _170  and  _171
REMARK   74  A    between atoms: _174  and  _176
REMARK   75  A    between atoms: _176  and  _177
REMARK   76  A    between atoms: _176  and  _179
REMARK   77  A    between atoms: _182  and  _184
REMARK   78  A    between atoms: _184  and  _185
REMARK   79  A    between atoms: _184  and  _187
REMARK   80  A    between atoms: _187  and  _188
REMARK   81  A    between atoms: _191  and  _193
REMARK   82  A    between atoms: _193  and  _194
REMARK   83  A    between atoms: _193  and  _196
REMARK   84  A    between atoms: _196  and  _197
REMARK   85  A    between atoms: _201  and  _202
REMARK   86  A    between atoms: _207  and  _209
REMARK   87  A    between atoms: _209  and  _210
REMARK   88  A    between atoms: _209  and  _212
REMARK   89  A    between atoms: _215  and  _217
REMARK   90  A    between atoms: _217  and  _218
REMARK   91  A    between atoms: _217  and  _220
REMARK   92  A    between atoms: _220  and  _221
REMARK   93  A    between atoms: _226  and  _228
REMARK   94  A    between atoms: _228  and  _229
REMARK   95  A    between atoms: _228  and  _231
REMARK   96  A    between atoms: _231  and  _232
REMARK   97  A    between atoms: _235  and  _237
REMARK   98  A    between atoms: _237  and  _238
REMARK   99  A    between atoms: _240  and  _242
REMARK  100  A    between atoms: _242  and  _243
REMARK  101  A    between atoms: _242  and  _245
REMARK  102  A    between atoms: _245  and  _246
REMARK  103  A    between atoms: _246  and  _247
REMARK  104  A    between atoms: _247  and  _248
REMARK  105  A    between atoms: _257  and  _259
REMARK  106  A    between atoms: _259  and  _260
REMARK  107  A    between atoms: _259  and  _262
REMARK  108  A    between atoms: _262  and  _263
REMARK  109  A    between atoms: _268  and  _270
REMARK  110  A    between atoms: _270  and  _271
REMARK  111  A    between atoms: _270  and  _273
REMARK  112  A    between atoms: _273  and  _274
REMARK  113  A    between atoms: _274  and  _275
REMARK  114  A    between atoms: _275  and  _276
REMARK  115  A    between atoms: _285  and  _287
REMARK  116  A    between atoms: _287  and  _288
REMARK  117  A    between atoms: _287  and  _290
REMARK  118  A    between atoms: _290  and  _291
REMARK  119  A    between atoms: _294  and  _296
REMARK  120  A    between atoms: _296  and  _297
REMARK  121  A    between atoms: _296  and  _299
REMARK  122  A    between atoms: _299  and  _300
REMARK  123  A    between atoms: _303  and  _305
REMARK  124  A    between atoms: _305  and  _306
REMARK  125  A    between atoms: _305  and  _308
REMARK  126  A    between atoms: _308  and  _309
REMARK  127  A    between atoms: _314  and  _316
REMARK  128  A    between atoms: _316  and  _317
REMARK  129  A    between atoms: _316  and  _319
REMARK  130  A    between atoms: _319  and  _320
REMARK  131  A    between atoms: _323  and  _325
REMARK  132  A    between atoms: _325  and  _326
REMARK  133  A    between atoms: _328  and  _330
REMARK  134  A    between atoms: _330  and  _331
REMARK  135  A    between atoms: _334  and  _336
REMARK  136  A    between atoms: _336  and  _337
REMARK  137  A    between atoms: _336  and  _339
REMARK  138  A    between atoms: _339  and  _340
REMARK  139  A    between atoms: _343  and  _345
REMARK  140  A    between atoms: _345  and  _346
REMARK  141  A    between atoms: _345  and  _348
REMARK  142  A    between atoms: _348  and  _349
REMARK  143  A    between atoms: _352  and  _354
REMARK  144  A    between atoms: _354  and  _355
REMARK  145  A    between atoms: _354  and  _357
REMARK  146  A    between atoms: _357  and  _358
REMARK  147  A    between atoms: _361  and  _363
REMARK  148  A    between atoms: _363  and  _364
REMARK  149  A    between atoms: _363  and  _366
REMARK  150  A    between atoms: _369  and  _371
REMARK  151  A    between atoms: _371  and  _372
REMARK  152  A    between atoms: _371  and  _374
REMARK  153  A    between atoms: _374  and  _375
REMARK  154  A    between atoms: _375  and  _376
REMARK  155  A    between atoms: _376  and  _377
REMARK  156  A    between atoms: _377  and  _378
REMARK  157  A    between atoms: _382  and  _384
REMARK  158  A    between atoms: _384  and  _385
REMARK  159  A    between atoms: _384  and  _387
REMARK  160  A    between atoms: _387  and  _388
REMARK  161  A    between atoms: _388  and  _389
REMARK  162  A    between atoms: _391  and  _393
REMARK  163  A    between atoms: _393  and  _394
REMARK  164  A    between atoms: _393  and  _396
REMARK  165  A    between atoms: _396  and  _397
REMARK  166  A    between atoms: _400  and  _402
REMARK  167  A    between atoms: _402  and  _403
REMARK  168  A    between atoms: _405  and  _407
REMARK  169  A    between atoms: _407  and  _408
REMARK  170  A    between atoms: _410  and  _412
REMARK  171  A    between atoms: _412  and  _413
REMARK  172  A    between atoms: _412  and  _415
REMARK  173  A    between atoms: _415  and  _416
REMARK  174  A    between atoms: _419  and  _421
REMARK  175  A    between atoms: _421  and  _422
REMARK  176  A    between atoms: _424  and  _426
REMARK  177  A    between atoms: _426  and  _427
REMARK  178  A    between atoms: _429  and  _431
REMARK  179  A    between atoms: _431  and  _432
REMARK  180  A    between atoms: _431  and  _434
REMARK  181  A    between atoms: _434  and  _435
REMARK  182  A    between atoms: _441  and  _443
REMARK  183  A    between atoms: _443  and  _444
REMARK  184  A    between atoms: _443  and  _446
REMARK  185  A    between atoms: _446  and  _447
REMARK  186  A    between atoms: _450  and  _452
REMARK  187  A    between atoms: _452  and  _453
REMARK  188  A    between atoms: _452  and  _455
REMARK  189  A    between atoms: _458  and  _460
REMARK  190  A    between atoms: _460  and  _461
REMARK  191  A    between atoms: _460  and  _463
REMARK  192  A    between atoms: _463  and  _464
REMARK  193  A    between atoms: _468  and  _469
REMARK  194  A    between atoms: _474  and  _476
REMARK  195  A    between atoms: _476  and  _477
REMARK  196  A    between atoms: _476  and  _479
REMARK  197  A    between atoms: _479  and  _480
REMARK  198  A    between atoms: _484  and  _485
REMARK  199  A    between atoms: _490  and  _492
REMARK  200  A    between atoms: _492  and  _493
REMARK  201  A    between atoms: _492  and  _495
REMARK  202  A    between atoms: _498  and  _500
REMARK  203  A    between atoms: _500  and  _501
REMARK  204  A    between atoms: _500  and  _503
REMARK  205  A    between atoms: _503  and  _504
REMARK  206  A    between atoms: _509  and  _511
REMARK  207  A    between atoms: _511  and  _512
REMARK  208  A    between atoms: _511  and  _514
REMARK  209  A    between atoms: _514  and  _515
REMARK  210  A    between atoms: _518  and  _520
REMARK  211  A    between atoms: _520  and  _521
REMARK  212  A    between atoms: _520  and  _523
REMARK  213  A    between atoms: _523  and  _524
REMARK  214  A    between atoms: _527  and  _529
REMARK  215  A    between atoms: _529  and  _530
REMARK  216  A    between atoms: _532  and  _534
REMARK  217  A    between atoms: _534  and  _535
REMARK  218  A    between atoms: _534  and  _537
REMARK  219  A    between atoms: _537  and  _538
REMARK  220  A    between atoms: _538  and  _539
REMARK  221  A    between atoms: _539  and  _540
REMARK  222  A    between atoms: _549  and  _551
REMARK  223  A    between atoms: _551  and  _552
REMARK  224  A    between atoms: _551  and  _554
REMARK  225  A    between atoms: _554  and  _555
REMARK                            x       y       z     vdW  Elec       q    Type
REMARK                         _______ _______ _______ _____ _____    ______ ____
ROOT
ATOM      1  O   HOH     1      25.544  25.244  22.795  0.00  0.00    +0.000 OA
ENDROOT
TORSDOF 0
REMARK  Name = ../refined-set-2016/3bva/3bva_pocket.pdb
REMARK  225 active torsions:
REMARK  status: ('A' for Active; 'I' for Inactive)
REMARK    1  A    between atoms: _1  and  _3
REMARK    2  A    between atoms: _3  and  _4
REMARK    3  A    between atoms: _3  and  _6
REMARK    4  A    between atoms: _6  and  _7
REMARK    5  A    between atoms: _7  and  _8
REMARK    6  A    between atoms: _8  and  _9
REMARK    7  A    between atoms: _18  and  _20
REMARK    8  A    between atoms: _20  and  _21
REMARK    9  A    between atoms: _20  and  _23
REMARK   10  A    between atoms: _23  and  _24
REMARK   11  A    between atoms: _27  and  _29
REMARK   12  A    between atoms: _29  and  _30
REMARK   13  A    between atoms: _29  and  _32
REMARK   14  A    between atoms: _32  and  _33
REMARK   15  A    between atoms: _38  and  _40
REMARK   16  A    between atoms: _40  and  _41
REMARK   17  A    between atoms: _40  and  _43
REMARK   18  A    between atoms: _43  and  _44
REMARK   19  A    between atoms: _47  and  _49
REMARK   20  A    between atoms: _49  and  _50
REMARK   21  A    between atoms: _52  and  _54
REMARK   22  A    between atoms: _54  and  _55
REMARK   23  A    between atoms: _58  and  _60
REMARK   24  A    between atoms: _60  and  _61
REMARK   25  A    between atoms: _60  and  _63
REMARK   26  A    between atoms: _63  and  _64
REMARK   27  A    between atoms: _67  and  _69
REMARK   28  A    between atoms: _69  and  _70
REMARK   29  A    between atoms: _69  and  _72
REMARK   30  A    between atoms: _72  and  _73
REMARK   31  A    between atoms: _76  and  _78
REMARK   32  A    between atoms: _78  and  _79
REMARK   33  A    between atoms: _78  and  _81
REMARK   34  A    between atoms: _81  and  _82
REMARK   35  A    between atoms: _85  and  _87
REMARK   36  A    between atoms: _87  and  _88
REMARK   37  A    between atoms: _87  and  _90
REMARK   38  A    between atoms: _93  and  _95
REMARK   39  A    between atoms: _95  and  _96
REMARK   40  A    between atoms: _95  and  _98
REMARK   41  A    between atoms: _98  and  _99
REMARK   42  A    between atoms: _99  and  _100
REMARK   43  A    between atoms: _100  and  _101
REMARK   44  A    between atoms: _101  and  _102
REMARK   45  A    between atoms: _106  and  _108
REMARK   46  A    between atoms: _108  and  _109
REMARK   47  A    between atoms: _108  and  _111
REMARK   48  A    between atoms: _111  and  _112
REMARK   49  A    between atoms: _112  and  _113
REMARK   50  A    between atoms: _115  and  _117
REMARK   51  A    between atoms: _117  and  _118
REMARK   52  A    between atoms: _117  and  _120
REMARK   53  A    between atoms: _120  and  _121
REMARK   54  A    between atoms: _124  and  _126
REMARK   55  A    between atoms: _126  and  _127
REMARK   56  A    between atoms: _129  and  _131
REMARK   57  A    between atoms: _131  and  _132
REMARK   58  A    between atoms: _134  and  _136
REMARK   59  A    between atoms: _136  and  _137
REMARK   60  A    between atoms: _136  and  _139
REMARK   61  A    between atoms: _139  and  _140
REMARK   62  A    between atoms: _143  and  _145
REMARK   63  A    between atoms: _145  and  _146
REMARK   64  A    between atoms: _148  and  _150
REMARK   65  A    between atoms: _150  and  _151
REMARK   66  A    between atoms: _153  and  _155
REMARK   67  A    between atoms: _155  and  _156
REMARK   68  A    between atoms: _155  and  _158
REMARK   69  A    between atoms: _158  and  _159
REMARK   70  A    between atoms: _165  and  _167
REMARK   71  A    between atoms: _167  and  _168
REMARK   72  A    between atoms: _167  and  _170
REMARK   73  A    between atoms: _170  and  _171
REMARK   74  A    between atoms: _174  and  _176
REMARK   75  A    between atoms: _176  and  _177
REMARK   76  A    between atoms: _176  and  _179
REMARK   77  A    between atoms: _182  and  _184
REMARK   78  A    between atoms: _184  and  _185
REMARK   79  A    between atoms: _184  and  _187
REMARK   80  A    between atoms: _187  and  _188
REMARK   81  A    between atoms: _191  and  _193
REMARK   82  A    between atoms: _193  and  _194
REMARK   83  A    between atoms: _193  and  _196
REMARK   84  A    between atoms: _196  and  _197
REMARK   85  A    between atoms: _201  and  _202
REMARK   86  A    between atoms: _207  and  _209
REMARK   87  A    between atoms: _209  and  _210
REMARK   88  A    between atoms: _209  and  _212
REMARK   89  A    between atoms: _215  and  _217
REMARK   90  A    between atoms: _217  and  _218
REMARK   91  A    between atoms: _217  and  _220
REMARK   92  A    between atoms: _220  and  _221
REMARK   93  A    between atoms: _226  and  _228
REMARK   94  A    between atoms: _228  and  _229
REMARK   95  A    between atoms: _228  and  _231
REMARK   96  A    between atoms: _231  and  _232
REMARK   97  A    between atoms: _235  and  _237
REMARK   98  A    between atoms: _237  and  _238
REMARK   99  A    between atoms: _240  and  _242
REMARK  100  A    between atoms: _242  and  _243
REMARK  101  A    between atoms: _242  and  _245
REMARK  102  A    between atoms: _245  and  _246
REMARK  103  A    between atoms: _246  and  _247
REMARK  104  A    between atoms: _247  and  _248
REMARK  105  A    between atoms: _257  and  _259
REMARK  106  A    between atoms: _259  and  _260
REMARK  107  A    between atoms: _259  and  _262
REMARK  108  A    between atoms: _262  and  _263
REMARK  109  A    between atoms: _268  and  _270
REMARK  110  A    between atoms: _270  and  _271
REMARK  111  A    between atoms: _270  and  _273
REMARK  112  A    between atoms: _273  and  _274
REMARK  113  A    between atoms: _274  and  _275
REMARK  114  A    between atoms: _275  and  _276
REMARK  115  A    between atoms: _285  and  _287
REMARK  116  A    between atoms: _287  and  _288
REMARK  117  A    between atoms: _287  and  _290
REMARK  118  A    between atoms: _290  and  _291
REMARK  119  A    between atoms: _294  and  _296
REMARK  120  A    between atoms: _296  and  _297
REMARK  121  A    between atoms: _296  and  _299
REMARK  122  A    between atoms: _299  and  _300
REMARK  123  A    between atoms: _303  and  _305
REMARK  124  A    between atoms: _305  and  _306
REMARK  125  A    between atoms: _305  and  _308
REMARK  126  A    between atoms: _308  and  _309
REMARK  127  A    between atoms: _314  and  _316
REMARK  128  A    between atoms: _316  and  _317
REMARK  129  A    between atoms: _316  and  _319
REMARK  130  A    between atoms: _319  and  _320
REMARK  131  A    between atoms: _323  and  _325
REMARK  132  A    between atoms: _325  and  _326
REMARK  133  A    between atoms: _328  and  _330
REMARK  134  A    between atoms: _330  and  _331
REMARK  135  A    between atoms: _334  and  _336
REMARK  136  A    between atoms: _336  and  _337
REMARK  137  A    between atoms: _336  and  _339
REMARK  138  A    between atoms: _339  and  _340
REMARK  139  A    between atoms: _343  and  _345
REMARK  140  A    between atoms: _345  and  _346
REMARK  141  A    between atoms: _345  and  _348
REMARK  142  A    between atoms: _348  and  _349
REMARK  143  A    between atoms: _352  and  _354
REMARK  144  A    between atoms: _354  and  _355
REMARK  145  A    between atoms: _354  and  _357
REMARK  146  A    between atoms: _357  and  _358
REMARK  147  A    between atoms: _361  and  _363
REMARK  148  A    between atoms: _363  and  _364
REMARK  149  A    between atoms: _363  and  _366
REMARK  150  A    between atoms: _369  and  _371
REMARK  151  A    between atoms: _371  and  _372
REMARK  152  A    between atoms: _371  and  _374
REMARK  153  A    between atoms: _374  and  _375
REMARK  154  A    between atoms: _375  and  _376
REMARK  155  A    between atoms: _376  and  _377
REMARK  156  A    between atoms: _377  and  _378
REMARK  157  A    between atoms: _382  and  _384
REMARK  158  A    between atoms: _384  and  _385
REMARK  159  A    between atoms: _384  and  _387
REMARK  160  A    between atoms: _387  and  _388
REMARK  161  A    between atoms: _388  and  _389
REMARK  162  A    between atoms: _391  and  _393
REMARK  163  A    between atoms: _393  and  _394
REMARK  164  A    between atoms: _393  and  _396
REMARK  165  A    between atoms: _396  and  _397
REMARK  166  A    between atoms: _400  and  _402
REMARK  167  A    between atoms: _402  and  _403
REMARK  168  A    between atoms: _405  and  _407
REMARK  169  A    between atoms: _407  and  _408
REMARK  170  A    between atoms: _410  and  _412
REMARK  171  A    between atoms: _412  and  _413
REMARK  172  A    between atoms: _412  and  _415
REMARK  173  A    between atoms: _415  and  _416
REMARK  174  A    between atoms: _419  and  _421
REMARK  175  A    between atoms: _421  and  _422
REMARK  176  A    between atoms: _424  and  _426
REMARK  177  A    between atoms: _426  and  _427
REMARK  178  A    between atoms: _429  and  _431
REMARK  179  A    between atoms: _431  and  _432
REMARK  180  A    between atoms: _431  and  _434
REMARK  181  A    between atoms: _434  and  _435
REMARK  182  A    between atoms: _441  and  _443
REMARK  183  A    between atoms: _443  and  _444
REMARK  184  A    between atoms: _443  and  _446
REMARK  185  A    between atoms: _446  and  _447
REMARK  186  A    between atoms: _450  and  _452
REMARK  187  A    between atoms: _452  and  _453
REMARK  188  A    between atoms: _452  and  _455
REMARK  189  A    between atoms: _458  and  _460
REMARK  190  A    between atoms: _460  and  _461
REMARK  191  A    between atoms: _460  and  _463
REMARK  192  A    between atoms: _463  and  _464
REMARK  193  A    between atoms: _468  and  _469
REMARK  194  A    between atoms: _474  and  _476
REMARK  195  A    between atoms: _476  and  _477
REMARK  196  A    between atoms: _476  and  _479
REMARK  197  A    between atoms: _479  and  _480
REMARK  198  A    between atoms: _484  and  _485
REMARK  199  A    between atoms: _490  and  _492
REMARK  200  A    between atoms: _492  and  _493
REMARK  201  A    between atoms: _492  and  _495
REMARK  202  A    between atoms: _498  and  _500
REMARK  203  A    between atoms: _500  and  _501
REMARK  204  A    between atoms: _500  and  _503
REMARK  205  A    between atoms: _503  and  _504
REMARK  206  A    between atoms: _509  and  _511
REMARK  207  A    between atoms: _511  and  _512
REMARK  208  A    between atoms: _511  and  _514
REMARK  209  A    between atoms: _514  and  _515
REMARK  210  A    between atoms: _518  and  _520
REMARK  211  A    between atoms: _520  and  _521
REMARK  212  A    between atoms: _520  and  _523
REMARK  213  A    between atoms: _523  and  _524
REMARK  214  A    between atoms: _527  and  _529
REMARK  215  A    between atoms: _529  and  _530
REMARK  216  A    between atoms: _532  and  _534
REMARK  217  A    between atoms: _534  and  _535
REMARK  218  A    between atoms: _534  and  _537
REMARK  219  A    between atoms: _537  and  _538
REMARK  220  A    between atoms: _538  and  _539
REMARK  221  A    between atoms: _539  and  _540
REMARK  222  A    between atoms: _549  and  _551
REMARK  223  A    between atoms: _551  and  _552
REMARK  224  A    between atoms: _551  and  _554
REMARK  225  A    between atoms: _554  and  _555
REMARK                            x       y       z     vdW  Elec       q    Type
REMARK                         _______ _______ _______ _____ _____    ______ ____
ROOT
ATOM      1  O   HOH     1      10.672  13.563  15.141  0.00  0.00    +0.000 OA
ENDROOT
TORSDOF 0
