REMARK  Name = ../refined-set-2016/1b9j/1b9j_pocket.pdb
REMARK  265 active torsions:
REMARK  status: ('A' for Active; 'I' for Inactive)
REMARK    1  A    between atoms: _1  and  _3
REMARK    2  A    between atoms: _3  and  _4
REMARK    3  A    between atoms: _3  and  _6
REMARK    4  A    between atoms: _6  and  _7
REMARK    5  A    between atoms: _12  and  _14
REMARK    6  A    between atoms: _14  and  _15
REMARK    7  A    between atoms: _17  and  _19
REMARK    8  A    between atoms: _19  and  _20
REMARK    9  A    between atoms: _19  and  _22
REMARK   10  A    between atoms: _22  and  _23
REMARK   11  A    between atoms: _25  and  _27
REMARK   12  A    between atoms: _27  and  _28
REMARK   13  A    between atoms: _27  and  _30
REMARK   14  A    between atoms: _30  and  _31
REMARK   15  A    between atoms: _31  and  _32
REMARK   16  A    between atoms: _37  and  _39
REMARK   17  A    between atoms: _39  and  _40
REMARK   18  A    between atoms: _39  and  _42
REMARK   19  A    between atoms: _42  and  _43
REMARK   20  A    between atoms: _46  and  _48
REMARK   21  A    between atoms: _48  and  _49
REMARK   22  A    between atoms: _48  and  _51
REMARK   23  A    between atoms: _51  and  _52
REMARK   24  A    between atoms: _52  and  _53
REMARK   25  A    between atoms: _56  and  _58
REMARK   26  A    between atoms: _58  and  _59
REMARK   27  A    between atoms: _61  and  _63
REMARK   28  A    between atoms: _63  and  _64
REMARK   29  A    between atoms: _63  and  _66
REMARK   30  A    between atoms: _70  and  _71
REMARK   31  A    between atoms: _76  and  _78
REMARK   32  A    between atoms: _78  and  _79
REMARK   33  A    between atoms: _78  and  _81
REMARK   34  A    between atoms: _81  and  _82
REMARK   35  A    between atoms: _82  and  _83
REMARK   36  A    between atoms: _86  and  _88
REMARK   37  A    between atoms: _88  and  _89
REMARK   38  A    between atoms: _88  and  _91
REMARK   39  A    between atoms: _91  and  _92
REMARK   40  A    between atoms: _94  and  _96
REMARK   41  A    between atoms: _96  and  _97
REMARK   42  A    between atoms: _96  and  _99
REMARK   43  A    between atoms: _99  and  _100
REMARK   44  A    between atoms: _105  and  _107
REMARK   45  A    between atoms: _107  and  _108
REMARK   46  A    between atoms: _107  and  _110
REMARK   47  A    between atoms: _110  and  _111
REMARK   48  A    between atoms: _111  and  _112
REMARK   49  A    between atoms: _112  and  _113
REMARK   50  A    between atoms: _123  and  _124
REMARK   51  A    between atoms: _129  and  _131
REMARK   52  A    between atoms: _131  and  _132
REMARK   53  A    between atoms: _131  and  _134
REMARK   54  A    between atoms: _134  and  _135
REMARK   55  A    between atoms: _140  and  _141
REMARK   56  A    between atoms: _143  and  _145
REMARK   57  A    between atoms: _145  and  _146
REMARK   58  A    between atoms: _145  and  _148
REMARK   59  A    between atoms: _148  and  _149
REMARK   60  A    between atoms: _154  and  _155
REMARK   61  A    between atoms: _157  and  _159
REMARK   62  A    between atoms: _159  and  _160
REMARK   63  A    between atoms: _159  and  _162
REMARK   64  A    between atoms: _165  and  _167
REMARK   65  A    between atoms: _167  and  _168
REMARK   66  A    between atoms: _167  and  _170
REMARK   67  A    between atoms: _170  and  _171
REMARK   68  A    between atoms: _177  and  _178
REMARK   69  A    between atoms: _183  and  _185
REMARK   70  A    between atoms: _185  and  _186
REMARK   71  A    between atoms: _185  and  _188
REMARK   72  A    between atoms: _188  and  _189
REMARK   73  A    between atoms: _191  and  _193
REMARK   74  A    between atoms: _193  and  _194
REMARK   75  A    between atoms: _193  and  _196
REMARK   76  A    between atoms: _196  and  _197
REMARK   77  A    between atoms: _197  and  _198
REMARK   78  A    between atoms: _201  and  _203
REMARK   79  A    between atoms: _203  and  _204
REMARK   80  A    between atoms: _203  and  _206
REMARK   81  A    between atoms: _206  and  _207
REMARK   82  A    between atoms: _212  and  _213
REMARK   83  A    between atoms: _215  and  _217
REMARK   84  A    between atoms: _217  and  _218
REMARK   85  A    between atoms: _217  and  _220
REMARK   86  A    between atoms: _220  and  _221
REMARK   87  A    between atoms: _226  and  _228
REMARK   88  A    between atoms: _228  and  _229
REMARK   89  A    between atoms: _228  and  _231
REMARK   90  A    between atoms: _231  and  _232
REMARK   91  A    between atoms: _237  and  _239
REMARK   92  A    between atoms: _239  and  _240
REMARK   93  A    between atoms: _239  and  _242
REMARK   94  A    between atoms: _242  and  _243
REMARK   95  A    between atoms: _243  and  _244
REMARK   96  A    between atoms: _246  and  _248
REMARK   97  A    between atoms: _248  and  _249
REMARK   98  A    between atoms: _248  and  _251
REMARK   99  A    between atoms: _251  and  _252
REMARK  100  A    between atoms: _257  and  _258
REMARK  101  A    between atoms: _260  and  _262
REMARK  102  A    between atoms: _262  and  _263
REMARK  103  A    between atoms: _262  and  _265
REMARK  104  A    between atoms: _265  and  _266
REMARK  105  A    between atoms: _269  and  _271
REMARK  106  A    between atoms: _271  and  _272
REMARK  107  A    between atoms: _271  and  _274
REMARK  108  A    between atoms: _274  and  _275
REMARK  109  A    between atoms: _275  and  _492
REMARK  110  A    between atoms: _276  and  _278
REMARK  111  A    between atoms: _278  and  _279
REMARK  112  A    between atoms: _278  and  _281
REMARK  113  A    between atoms: _281  and  _282
REMARK  114  A    between atoms: _285  and  _287
REMARK  115  A    between atoms: _287  and  _288
REMARK  116  A    between atoms: _287  and  _290
REMARK  117  A    between atoms: _290  and  _291
REMARK  118  A    between atoms: _296  and  _297
REMARK  119  A    between atoms: _299  and  _301
REMARK  120  A    between atoms: _301  and  _302
REMARK  121  A    between atoms: _301  and  _304
REMARK  122  A    between atoms: _304  and  _305
REMARK  123  A    between atoms: _310  and  _311
REMARK  124  A    between atoms: _313  and  _315
REMARK  125  A    between atoms: _315  and  _316
REMARK  126  A    between atoms: _315  and  _318
REMARK  127  A    between atoms: _318  and  _319
REMARK  128  A    between atoms: _319  and  _320
REMARK  129  A    between atoms: _323  and  _325
REMARK  130  A    between atoms: _325  and  _326
REMARK  131  A    between atoms: _325  and  _328
REMARK  132  A    between atoms: _328  and  _329
REMARK  133  A    between atoms: _334  and  _335
REMARK  134  A    between atoms: _337  and  _339
REMARK  135  A    between atoms: _339  and  _340
REMARK  136  A    between atoms: _339  and  _342
REMARK  137  A    between atoms: _342  and  _343
REMARK  138  A    between atoms: _348  and  _350
REMARK  139  A    between atoms: _350  and  _351
REMARK  140  A    between atoms: _350  and  _353
REMARK  141  A    between atoms: _353  and  _354
REMARK  142  A    between atoms: _357  and  _359
REMARK  143  A    between atoms: _359  and  _360
REMARK  144  A    between atoms: _359  and  _362
REMARK  145  A    between atoms: _362  and  _363
REMARK  146  A    between atoms: _368  and  _370
REMARK  147  A    between atoms: _370  and  _371
REMARK  148  A    between atoms: _370  and  _373
REMARK  149  A    between atoms: _373  and  _374
REMARK  150  A    between atoms: _384  and  _386
REMARK  151  A    between atoms: _386  and  _387
REMARK  152  A    between atoms: _386  and  _389
REMARK  153  A    between atoms: _389  and  _390
REMARK  154  A    between atoms: _396  and  _398
REMARK  155  A    between atoms: _398  and  _399
REMARK  156  A    between atoms: _398  and  _401
REMARK  157  A    between atoms: _401  and  _402
REMARK  158  A    between atoms: _405  and  _407
REMARK  159  A    between atoms: _407  and  _408
REMARK  160  A    between atoms: _407  and  _410
REMARK  161  A    between atoms: _410  and  _411
REMARK  162  A    between atoms: _414  and  _416
REMARK  163  A    between atoms: _416  and  _417
REMARK  164  A    between atoms: _416  and  _419
REMARK  165  A    between atoms: _419  and  _420
REMARK  166  A    between atoms: _420  and  _421
REMARK  167  A    between atoms: _421  and  _422
REMARK  168  A    between atoms: _431  and  _433
REMARK  169  A    between atoms: _433  and  _434
REMARK  170  A    between atoms: _433  and  _436
REMARK  171  A    between atoms: _436  and  _437
REMARK  172  A    between atoms: _442  and  _444
REMARK  173  A    between atoms: _444  and  _445
REMARK  174  A    between atoms: _444  and  _447
REMARK  175  A    between atoms: _447  and  _448
REMARK  176  A    between atoms: _448  and  _449
REMARK  177  A    between atoms: _449  and  _450
REMARK  178  A    between atoms: _459  and  _461
REMARK  179  A    between atoms: _461  and  _462
REMARK  180  A    between atoms: _465  and  _467
REMARK  181  A    between atoms: _467  and  _468
REMARK  182  A    between atoms: _470  and  _472
REMARK  183  A    between atoms: _472  and  _473
REMARK  184  A    between atoms: _472  and  _475
REMARK  185  A    between atoms: _475  and  _476
REMARK  186  A    between atoms: _486  and  _488
REMARK  187  A    between atoms: _488  and  _489
REMARK  188  A    between atoms: _488  and  _491
REMARK  189  A    between atoms: _491  and  _492
REMARK  190  A    between atoms: _493  and  _495
REMARK  191  A    between atoms: _495  and  _496
REMARK  192  A    between atoms: _499  and  _501
REMARK  193  A    between atoms: _501  and  _502
REMARK  194  A    between atoms: _501  and  _504
REMARK  195  A    between atoms: _504  and  _505
REMARK  196  A    between atoms: _508  and  _510
REMARK  197  A    between atoms: _510  and  _511
REMARK  198  A    between atoms: _510  and  _513
REMARK  199  A    between atoms: _513  and  _514
REMARK  200  A    between atoms: _519  and  _520
REMARK  201  A    between atoms: _522  and  _524
REMARK  202  A    between atoms: _524  and  _525
REMARK  203  A    between atoms: _524  and  _527
REMARK  204  A    between atoms: _527  and  _528
REMARK  205  A    between atoms: _530  and  _532
REMARK  206  A    between atoms: _532  and  _533
REMARK  207  A    between atoms: _532  and  _535
REMARK  208  A    between atoms: _535  and  _536
REMARK  209  A    between atoms: _542  and  _544
REMARK  210  A    between atoms: _544  and  _545
REMARK  211  A    between atoms: _544  and  _547
REMARK  212  A    between atoms: _547  and  _548
REMARK  213  A    between atoms: _551  and  _553
REMARK  214  A    between atoms: _553  and  _554
REMARK  215  A    between atoms: _553  and  _556
REMARK  216  A    between atoms: _556  and  _557
REMARK  217  A    between atoms: _559  and  _561
REMARK  218  A    between atoms: _561  and  _562
REMARK  219  A    between atoms: _561  and  _564
REMARK  220  A    between atoms: _564  and  _565
REMARK  221  A    between atoms: _570  and  _572
REMARK  222  A    between atoms: _572  and  _573
REMARK  223  A    between atoms: _572  and  _575
REMARK  224  A    between atoms: _575  and  _576
REMARK  225  A    between atoms: _581  and  _583
REMARK  226  A    between atoms: _583  and  _584
REMARK  227  A    between atoms: _583  and  _586
REMARK  228  A    between atoms: _586  and  _587
REMARK  229  A    between atoms: _590  and  _592
REMARK  230  A    between atoms: _592  and  _593
REMARK  231  A    between atoms: _592  and  _595
REMARK  232  A    between atoms: _595  and  _596
REMARK  233  A    between atoms: _601  and  _602
REMARK  234  A    between atoms: _604  and  _606
REMARK  235  A    between atoms: _606  and  _607
REMARK  236  A    between atoms: _606  and  _609
REMARK  237  A    between atoms: _609  and  _610
REMARK  238  A    between atoms: _615  and  _616
REMARK  239  A    between atoms: _618  and  _620
REMARK  240  A    between atoms: _620  and  _621
REMARK  241  A    between atoms: _620  and  _623
REMARK  242  A    between atoms: _626  and  _628
REMARK  243  A    between atoms: _628  and  _629
REMARK  244  A    between atoms: _628  and  _631
REMARK  245  A    between atoms: _631  and  _632
REMARK  246  A    between atoms: _637  and  _639
REMARK  247  A    between atoms: _639  and  _640
REMARK  248  A    between atoms: _643  and  _645
REMARK  249  A    between atoms: _645  and  _646
REMARK  250  A    between atoms: _645  and  _648
REMARK  251  A    between atoms: _648  and  _649
REMARK  252  A    between atoms: _649  and  _650
REMARK  253  A    between atoms: _650  and  _651
REMARK  254  A    between atoms: _660  and  _662
REMARK  255  A    between atoms: _662  and  _663
REMARK  256  A    between atoms: _662  and  _665
REMARK  257  A    between atoms: _665  and  _666
REMARK  258  A    between atoms: _669  and  _671
REMARK  259  A    between atoms: _671  and  _672
REMARK  260  A    between atoms: _671  and  _674
REMARK  261  A    between atoms: _674  and  _675
REMARK  262  A    between atoms: _678  and  _680
REMARK  263  A    between atoms: _680  and  _681
REMARK  264  A    between atoms: _680  and  _683
REMARK  265  A    between atoms: _683  and  _684
REMARK                            x       y       z     vdW  Elec       q    Type
REMARK                         _______ _______ _______ _____ _____    ______ ____
ROOT
ATOM      1  C   ASN A   1      -3.420  23.162   6.605  0.00  0.00    +0.239 C 
ATOM      2  O   ASN A   1      -2.386  23.344   7.270  0.00  0.00    -0.274 OA
ATOM      3  N   GLY A   2      -4.627  23.471   7.098  0.00  0.00    -0.296 N 
ATOM      4  H   GLY A   2      -5.457  23.446   6.471  0.00  0.00    +0.150 HD
ENDROOT
BRANCH   1   5
ATOM      5  CA  ASN A   1      -3.413  22.622   5.191  0.00  0.00    +0.154 C 
BRANCH   5   6
ATOM      6  N   ASN A   1      -4.684  22.893   4.488  0.00  0.00    -0.238 NA
ATOM      7  H   ASN A   1      -5.066  23.859   4.437  0.00  0.00    +0.142 HD
ENDBRANCH   5   6
BRANCH   5   8
ATOM      8  CB  ASN A   1      -2.247  23.294   4.393  0.00  0.00    +0.111 C 
BRANCH   8   9
ATOM      9  CG  ASN A   1      -0.900  22.687   4.793  0.00  0.00    +0.221 C 
ATOM     10  OD1 ASN A   1      -0.786  21.497   5.074  0.00  0.00    -0.275 OA
ATOM     11  ND2 ASN A   1       0.156  23.484   4.753  0.00  0.00    -0.329 N 
ATOM     12 HD21 ASN A   1       1.102  23.105   4.962  0.00  0.00    +0.145 HD
ATOM     13 HD22 ASN A   1       0.040  24.489   4.513  0.00  0.00    +0.145 HD
ENDBRANCH   8   9
ENDBRANCH   5   8
ENDBRANCH   1   5
BRANCH   3  14
ATOM     14  CA  GLY A   2      -4.798  23.843   8.501  0.00  0.00    +0.176 C 
BRANCH  14  15
ATOM     15  C   GLY A   2      -4.451  25.238   8.913  0.00  0.00    +0.243 C 
ATOM     16  O   GLY A   2      -5.177  25.808   9.738  0.00  0.00    -0.273 OA
ATOM     17  N   SER A   3      -3.443  25.876   8.377  0.00  0.00    -0.296 N 
ATOM     18  H   SER A   3      -2.871  25.378   7.666  0.00  0.00    +0.150 HD
BRANCH  17  19
ATOM     19  CA  SER A   3      -3.079  27.229   8.714  0.00  0.00    +0.166 C 
BRANCH  19  20
ATOM     20  C   SER A   3      -2.032  27.715   7.717  0.00  0.00    +0.229 C 
ATOM     21  O   SER A   3      -1.564  26.942   6.874  0.00  0.00    -0.286 OA
ENDBRANCH  19  20
BRANCH  19  22
ATOM     22  CB  SER A   3      -2.463  27.313  10.126  0.00  0.00    +0.165 C 
BRANCH  22  23
ATOM     23  OG  SER A   3      -1.504  26.286  10.329  0.00  0.00    -0.380 OA
ATOM     24  H   SER A   3      -1.941  25.403  10.226  0.00  0.00    +0.211 HD
ENDBRANCH  22  23
ENDBRANCH  19  22
ENDBRANCH  17  19
ENDBRANCH  14  15
ENDBRANCH   3  14
TORSDOF 10
REMARK  Name = ../refined-set-2016/1b9j/1b9j_pocket.pdb
REMARK  265 active torsions:
REMARK  status: ('A' for Active; 'I' for Inactive)
REMARK    1  A    between atoms: _1  and  _3
REMARK    2  A    between atoms: _3  and  _4
REMARK    3  A    between atoms: _3  and  _6
REMARK    4  A    between atoms: _6  and  _7
REMARK    5  A    between atoms: _12  and  _14
REMARK    6  A    between atoms: _14  and  _15
REMARK    7  A    between atoms: _17  and  _19
REMARK    8  A    between atoms: _19  and  _20
REMARK    9  A    between atoms: _19  and  _22
REMARK   10  A    between atoms: _22  and  _23
REMARK   11  A    between atoms: _25  and  _27
REMARK   12  A    between atoms: _27  and  _28
REMARK   13  A    between atoms: _27  and  _30
REMARK   14  A    between atoms: _30  and  _31
REMARK   15  A    between atoms: _31  and  _32
REMARK   16  A    between atoms: _37  and  _39
REMARK   17  A    between atoms: _39  and  _40
REMARK   18  A    between atoms: _39  and  _42
REMARK   19  A    between atoms: _42  and  _43
REMARK   20  A    between atoms: _46  and  _48
REMARK   21  A    between atoms: _48  and  _49
REMARK   22  A    between atoms: _48  and  _51
REMARK   23  A    between atoms: _51  and  _52
REMARK   24  A    between atoms: _52  and  _53
REMARK   25  A    between atoms: _56  and  _58
REMARK   26  A    between atoms: _58  and  _59
REMARK   27  A    between atoms: _61  and  _63
REMARK   28  A    between atoms: _63  and  _64
REMARK   29  A    between atoms: _63  and  _66
REMARK   30  A    between atoms: _70  and  _71
REMARK   31  A    between atoms: _76  and  _78
REMARK   32  A    between atoms: _78  and  _79
REMARK   33  A    between atoms: _78  and  _81
REMARK   34  A    between atoms: _81  and  _82
REMARK   35  A    between atoms: _82  and  _83
REMARK   36  A    between atoms: _86  and  _88
REMARK   37  A    between atoms: _88  and  _89
REMARK   38  A    between atoms: _88  and  _91
REMARK   39  A    between atoms: _91  and  _92
REMARK   40  A    between atoms: _94  and  _96
REMARK   41  A    between atoms: _96  and  _97
REMARK   42  A    between atoms: _96  and  _99
REMARK   43  A    between atoms: _99  and  _100
REMARK   44  A    between atoms: _105  and  _107
REMARK   45  A    between atoms: _107  and  _108
REMARK   46  A    between atoms: _107  and  _110
REMARK   47  A    between atoms: _110  and  _111
REMARK   48  A    between atoms: _111  and  _112
REMARK   49  A    between atoms: _112  and  _113
REMARK   50  A    between atoms: _123  and  _124
REMARK   51  A    between atoms: _129  and  _131
REMARK   52  A    between atoms: _131  and  _132
REMARK   53  A    between atoms: _131  and  _134
REMARK   54  A    between atoms: _134  and  _135
REMARK   55  A    between atoms: _140  and  _141
REMARK   56  A    between atoms: _143  and  _145
REMARK   57  A    between atoms: _145  and  _146
REMARK   58  A    between atoms: _145  and  _148
REMARK   59  A    between atoms: _148  and  _149
REMARK   60  A    between atoms: _154  and  _155
REMARK   61  A    between atoms: _157  and  _159
REMARK   62  A    between atoms: _159  and  _160
REMARK   63  A    between atoms: _159  and  _162
REMARK   64  A    between atoms: _165  and  _167
REMARK   65  A    between atoms: _167  and  _168
REMARK   66  A    between atoms: _167  and  _170
REMARK   67  A    between atoms: _170  and  _171
REMARK   68  A    between atoms: _177  and  _178
REMARK   69  A    between atoms: _183  and  _185
REMARK   70  A    between atoms: _185  and  _186
REMARK   71  A    between atoms: _185  and  _188
REMARK   72  A    between atoms: _188  and  _189
REMARK   73  A    between atoms: _191  and  _193
REMARK   74  A    between atoms: _193  and  _194
REMARK   75  A    between atoms: _193  and  _196
REMARK   76  A    between atoms: _196  and  _197
REMARK   77  A    between atoms: _197  and  _198
REMARK   78  A    between atoms: _201  and  _203
REMARK   79  A    between atoms: _203  and  _204
REMARK   80  A    between atoms: _203  and  _206
REMARK   81  A    between atoms: _206  and  _207
REMARK   82  A    between atoms: _212  and  _213
REMARK   83  A    between atoms: _215  and  _217
REMARK   84  A    between atoms: _217  and  _218
REMARK   85  A    between atoms: _217  and  _220
REMARK   86  A    between atoms: _220  and  _221
REMARK   87  A    between atoms: _226  and  _228
REMARK   88  A    between atoms: _228  and  _229
REMARK   89  A    between atoms: _228  and  _231
REMARK   90  A    between atoms: _231  and  _232
REMARK   91  A    between atoms: _237  and  _239
REMARK   92  A    between atoms: _239  and  _240
REMARK   93  A    between atoms: _239  and  _242
REMARK   94  A    between atoms: _242  and  _243
REMARK   95  A    between atoms: _243  and  _244
REMARK   96  A    between atoms: _246  and  _248
REMARK   97  A    between atoms: _248  and  _249
REMARK   98  A    between atoms: _248  and  _251
REMARK   99  A    between atoms: _251  and  _252
REMARK  100  A    between atoms: _257  and  _258
REMARK  101  A    between atoms: _260  and  _262
REMARK  102  A    between atoms: _262  and  _263
REMARK  103  A    between atoms: _262  and  _265
REMARK  104  A    between atoms: _265  and  _266
REMARK  105  A    between atoms: _269  and  _271
REMARK  106  A    between atoms: _271  and  _272
REMARK  107  A    between atoms: _271  and  _274
REMARK  108  A    between atoms: _274  and  _275
REMARK  109  A    between atoms: _275  and  _492
REMARK  110  A    between atoms: _276  and  _278
REMARK  111  A    between atoms: _278  and  _279
REMARK  112  A    between atoms: _278  and  _281
REMARK  113  A    between atoms: _281  and  _282
REMARK  114  A    between atoms: _285  and  _287
REMARK  115  A    between atoms: _287  and  _288
REMARK  116  A    between atoms: _287  and  _290
REMARK  117  A    between atoms: _290  and  _291
REMARK  118  A    between atoms: _296  and  _297
REMARK  119  A    between atoms: _299  and  _301
REMARK  120  A    between atoms: _301  and  _302
REMARK  121  A    between atoms: _301  and  _304
REMARK  122  A    between atoms: _304  and  _305
REMARK  123  A    between atoms: _310  and  _311
REMARK  124  A    between atoms: _313  and  _315
REMARK  125  A    between atoms: _315  and  _316
REMARK  126  A    between atoms: _315  and  _318
REMARK  127  A    between atoms: _318  and  _319
REMARK  128  A    between atoms: _319  and  _320
REMARK  129  A    between atoms: _323  and  _325
REMARK  130  A    between atoms: _325  and  _326
REMARK  131  A    between atoms: _325  and  _328
REMARK  132  A    between atoms: _328  and  _329
REMARK  133  A    between atoms: _334  and  _335
REMARK  134  A    between atoms: _337  and  _339
REMARK  135  A    between atoms: _339  and  _340
REMARK  136  A    between atoms: _339  and  _342
REMARK  137  A    between atoms: _342  and  _343
REMARK  138  A    between atoms: _348  and  _350
REMARK  139  A    between atoms: _350  and  _351
REMARK  140  A    between atoms: _350  and  _353
REMARK  141  A    between atoms: _353  and  _354
REMARK  142  A    between atoms: _357  and  _359
REMARK  143  A    between atoms: _359  and  _360
REMARK  144  A    between atoms: _359  and  _362
REMARK  145  A    between atoms: _362  and  _363
REMARK  146  A    between atoms: _368  and  _370
REMARK  147  A    between atoms: _370  and  _371
REMARK  148  A    between atoms: _370  and  _373
REMARK  149  A    between atoms: _373  and  _374
REMARK  150  A    between atoms: _384  and  _386
REMARK  151  A    between atoms: _386  and  _387
REMARK  152  A    between atoms: _386  and  _389
REMARK  153  A    between atoms: _389  and  _390
REMARK  154  A    between atoms: _396  and  _398
REMARK  155  A    between atoms: _398  and  _399
REMARK  156  A    between atoms: _398  and  _401
REMARK  157  A    between atoms: _401  and  _402
REMARK  158  A    between atoms: _405  and  _407
REMARK  159  A    between atoms: _407  and  _408
REMARK  160  A    between atoms: _407  and  _410
REMARK  161  A    between atoms: _410  and  _411
REMARK  162  A    between atoms: _414  and  _416
REMARK  163  A    between atoms: _416  and  _417
REMARK  164  A    between atoms: _416  and  _419
REMARK  165  A    between atoms: _419  and  _420
REMARK  166  A    between atoms: _420  and  _421
REMARK  167  A    between atoms: _421  and  _422
REMARK  168  A    between atoms: _431  and  _433
REMARK  169  A    between atoms: _433  and  _434
REMARK  170  A    between atoms: _433  and  _436
REMARK  171  A    between atoms: _436  and  _437
REMARK  172  A    between atoms: _442  and  _444
REMARK  173  A    between atoms: _444  and  _445
REMARK  174  A    between atoms: _444  and  _447
REMARK  175  A    between atoms: _447  and  _448
REMARK  176  A    between atoms: _448  and  _449
REMARK  177  A    between atoms: _449  and  _450
REMARK  178  A    between atoms: _459  and  _461
REMARK  179  A    between atoms: _461  and  _462
REMARK  180  A    between atoms: _465  and  _467
REMARK  181  A    between atoms: _467  and  _468
REMARK  182  A    between atoms: _470  and  _472
REMARK  183  A    between atoms: _472  and  _473
REMARK  184  A    between atoms: _472  and  _475
REMARK  185  A    between atoms: _475  and  _476
REMARK  186  A    between atoms: _486  and  _488
REMARK  187  A    between atoms: _488  and  _489
REMARK  188  A    between atoms: _488  and  _491
REMARK  189  A    between atoms: _491  and  _492
REMARK  190  A    between atoms: _493  and  _495
REMARK  191  A    between atoms: _495  and  _496
REMARK  192  A    between atoms: _499  and  _501
REMARK  193  A    between atoms: _501  and  _502
REMARK  194  A    between atoms: _501  and  _504
REMARK  195  A    between atoms: _504  and  _505
REMARK  196  A    between atoms: _508  and  _510
REMARK  197  A    between atoms: _510  and  _511
REMARK  198  A    between atoms: _510  and  _513
REMARK  199  A    between atoms: _513  and  _514
REMARK  200  A    between atoms: _519  and  _520
REMARK  201  A    between atoms: _522  and  _524
REMARK  202  A    between atoms: _524  and  _525
REMARK  203  A    between atoms: _524  and  _527
REMARK  204  A    between atoms: _527  and  _528
REMARK  205  A    between atoms: _530  and  _532
REMARK  206  A    between atoms: _532  and  _533
REMARK  207  A    between atoms: _532  and  _535
REMARK  208  A    between atoms: _535  and  _536
REMARK  209  A    between atoms: _542  and  _544
REMARK  210  A    between atoms: _544  and  _545
REMARK  211  A    between atoms: _544  and  _547
REMARK  212  A    between atoms: _547  and  _548
REMARK  213  A    between atoms: _551  and  _553
REMARK  214  A    between atoms: _553  and  _554
REMARK  215  A    between atoms: _553  and  _556
REMARK  216  A    between atoms: _556  and  _557
REMARK  217  A    between atoms: _559  and  _561
REMARK  218  A    between atoms: _561  and  _562
REMARK  219  A    between atoms: _561  and  _564
REMARK  220  A    between atoms: _564  and  _565
REMARK  221  A    between atoms: _570  and  _572
REMARK  222  A    between atoms: _572  and  _573
REMARK  223  A    between atoms: _572  and  _575
REMARK  224  A    between atoms: _575  and  _576
REMARK  225  A    between atoms: _581  and  _583
REMARK  226  A    between atoms: _583  and  _584
REMARK  227  A    between atoms: _583  and  _586
REMARK  228  A    between atoms: _586  and  _587
REMARK  229  A    between atoms: _590  and  _592
REMARK  230  A    between atoms: _592  and  _593
REMARK  231  A    between atoms: _592  and  _595
REMARK  232  A    between atoms: _595  and  _596
REMARK  233  A    between atoms: _601  and  _602
REMARK  234  A    between atoms: _604  and  _606
REMARK  235  A    between atoms: _606  and  _607
REMARK  236  A    between atoms: _606  and  _609
REMARK  237  A    between atoms: _609  and  _610
REMARK  238  A    between atoms: _615  and  _616
REMARK  239  A    between atoms: _618  and  _620
REMARK  240  A    between atoms: _620  and  _621
REMARK  241  A    between atoms: _620  and  _623
REMARK  242  A    between atoms: _626  and  _628
REMARK  243  A    between atoms: _628  and  _629
REMARK  244  A    between atoms: _628  and  _631
REMARK  245  A    between atoms: _631  and  _632
REMARK  246  A    between atoms: _637  and  _639
REMARK  247  A    between atoms: _639  and  _640
REMARK  248  A    between atoms: _643  and  _645
REMARK  249  A    between atoms: _645  and  _646
REMARK  250  A    between atoms: _645  and  _648
REMARK  251  A    between atoms: _648  and  _649
REMARK  252  A    between atoms: _649  and  _650
REMARK  253  A    between atoms: _650  and  _651
REMARK  254  A    between atoms: _660  and  _662
REMARK  255  A    between atoms: _662  and  _663
REMARK  256  A    between atoms: _662  and  _665
REMARK  257  A    between atoms: _665  and  _666
REMARK  258  A    between atoms: _669  and  _671
REMARK  259  A    between atoms: _671  and  _672
REMARK  260  A    between atoms: _671  and  _674
REMARK  261  A    between atoms: _674  and  _675
REMARK  262  A    between atoms: _678  and  _680
REMARK  263  A    between atoms: _680  and  _681
REMARK  264  A    between atoms: _680  and  _683
REMARK  265  A    between atoms: _683  and  _684
REMARK                            x       y       z     vdW  Elec       q    Type
REMARK                         _______ _______ _______ _____ _____    ______ ____
ROOT
ATOM      1  CB  GLN A   1       6.393  28.638  10.318  0.00  0.00    +0.035 C 
ENDROOT
BRANCH   1   2
ATOM      2  CA  GLN A   1       5.512  29.445   9.366  0.00  0.00    +0.134 C 
BRANCH   2   3
ATOM      3  N   GLN A   1       4.539  28.587   8.717  0.00  0.00    -0.239 NA
ATOM      4  H   GLN A   1       4.517  27.577   8.962  0.00  0.00    +0.142 HD
ENDBRANCH   2   3
BRANCH   2   5
ATOM      5  C   GLN A   1       6.508  29.934   8.291  0.00  0.00    +0.224 C 
ATOM      6  O   GLN A   1       6.951  31.085   8.348  0.00  0.00    -0.287 OA
ENDBRANCH   2   5
ENDBRANCH   1   2
BRANCH   1   7
ATOM      7  CG  GLN A   1       5.776  28.167  11.608  0.00  0.00    +0.087 C 
BRANCH   7   8
ATOM      8  CD  GLN A   1       6.756  27.205  12.300  0.00  0.00    +0.219 C 
ATOM      9  NE2 GLN A   1       7.349  27.663  13.393  0.00  0.00    -0.329 N 
ATOM     10 HE21 GLN A   1       8.037  27.070  13.899  0.00  0.00    +0.145 HD
ATOM     11 HE22 GLN A   1       7.126  28.616  13.745  0.00  0.00    +0.145 HD
ATOM     12  OE1 GLN A   1       6.960  26.090  11.813  0.00  0.00    -0.275 OA
ENDBRANCH   7   8
ENDBRANCH   1   7
TORSDOF 5
REMARK  Name = ../refined-set-2016/1b9j/1b9j_pocket.pdb
REMARK  265 active torsions:
REMARK  status: ('A' for Active; 'I' for Inactive)
REMARK    1  A    between atoms: _1  and  _3
REMARK    2  A    between atoms: _3  and  _4
REMARK    3  A    between atoms: _3  and  _6
REMARK    4  A    between atoms: _6  and  _7
REMARK    5  A    between atoms: _12  and  _14
REMARK    6  A    between atoms: _14  and  _15
REMARK    7  A    between atoms: _17  and  _19
REMARK    8  A    between atoms: _19  and  _20
REMARK    9  A    between atoms: _19  and  _22
REMARK   10  A    between atoms: _22  and  _23
REMARK   11  A    between atoms: _25  and  _27
REMARK   12  A    between atoms: _27  and  _28
REMARK   13  A    between atoms: _27  and  _30
REMARK   14  A    between atoms: _30  and  _31
REMARK   15  A    between atoms: _31  and  _32
REMARK   16  A    between atoms: _37  and  _39
REMARK   17  A    between atoms: _39  and  _40
REMARK   18  A    between atoms: _39  and  _42
REMARK   19  A    between atoms: _42  and  _43
REMARK   20  A    between atoms: _46  and  _48
REMARK   21  A    between atoms: _48  and  _49
REMARK   22  A    between atoms: _48  and  _51
REMARK   23  A    between atoms: _51  and  _52
REMARK   24  A    between atoms: _52  and  _53
REMARK   25  A    between atoms: _56  and  _58
REMARK   26  A    between atoms: _58  and  _59
REMARK   27  A    between atoms: _61  and  _63
REMARK   28  A    between atoms: _63  and  _64
REMARK   29  A    between atoms: _63  and  _66
REMARK   30  A    between atoms: _70  and  _71
REMARK   31  A    between atoms: _76  and  _78
REMARK   32  A    between atoms: _78  and  _79
REMARK   33  A    between atoms: _78  and  _81
REMARK   34  A    between atoms: _81  and  _82
REMARK   35  A    between atoms: _82  and  _83
REMARK   36  A    between atoms: _86  and  _88
REMARK   37  A    between atoms: _88  and  _89
REMARK   38  A    between atoms: _88  and  _91
REMARK   39  A    between atoms: _91  and  _92
REMARK   40  A    between atoms: _94  and  _96
REMARK   41  A    between atoms: _96  and  _97
REMARK   42  A    between atoms: _96  and  _99
REMARK   43  A    between atoms: _99  and  _100
REMARK   44  A    between atoms: _105  and  _107
REMARK   45  A    between atoms: _107  and  _108
REMARK   46  A    between atoms: _107  and  _110
REMARK   47  A    between atoms: _110  and  _111
REMARK   48  A    between atoms: _111  and  _112
REMARK   49  A    between atoms: _112  and  _113
REMARK   50  A    between atoms: _123  and  _124
REMARK   51  A    between atoms: _129  and  _131
REMARK   52  A    between atoms: _131  and  _132
REMARK   53  A    between atoms: _131  and  _134
REMARK   54  A    between atoms: _134  and  _135
REMARK   55  A    between atoms: _140  and  _141
REMARK   56  A    between atoms: _143  and  _145
REMARK   57  A    between atoms: _145  and  _146
REMARK   58  A    between atoms: _145  and  _148
REMARK   59  A    between atoms: _148  and  _149
REMARK   60  A    between atoms: _154  and  _155
REMARK   61  A    between atoms: _157  and  _159
REMARK   62  A    between atoms: _159  and  _160
REMARK   63  A    between atoms: _159  and  _162
REMARK   64  A    between atoms: _165  and  _167
REMARK   65  A    between atoms: _167  and  _168
REMARK   66  A    between atoms: _167  and  _170
REMARK   67  A    between atoms: _170  and  _171
REMARK   68  A    between atoms: _177  and  _178
REMARK   69  A    between atoms: _183  and  _185
REMARK   70  A    between atoms: _185  and  _186
REMARK   71  A    between atoms: _185  and  _188
REMARK   72  A    between atoms: _188  and  _189
REMARK   73  A    between atoms: _191  and  _193
REMARK   74  A    between atoms: _193  and  _194
REMARK   75  A    between atoms: _193  and  _196
REMARK   76  A    between atoms: _196  and  _197
REMARK   77  A    between atoms: _197  and  _198
REMARK   78  A    between atoms: _201  and  _203
REMARK   79  A    between atoms: _203  and  _204
REMARK   80  A    between atoms: _203  and  _206
REMARK   81  A    between atoms: _206  and  _207
REMARK   82  A    between atoms: _212  and  _213
REMARK   83  A    between atoms: _215  and  _217
REMARK   84  A    between atoms: _217  and  _218
REMARK   85  A    between atoms: _217  and  _220
REMARK   86  A    between atoms: _220  and  _221
REMARK   87  A    between atoms: _226  and  _228
REMARK   88  A    between atoms: _228  and  _229
REMARK   89  A    between atoms: _228  and  _231
REMARK   90  A    between atoms: _231  and  _232
REMARK   91  A    between atoms: _237  and  _239
REMARK   92  A    between atoms: _239  and  _240
REMARK   93  A    between atoms: _239  and  _242
REMARK   94  A    between atoms: _242  and  _243
REMARK   95  A    between atoms: _243  and  _244
REMARK   96  A    between atoms: _246  and  _248
REMARK   97  A    between atoms: _248  and  _249
REMARK   98  A    between atoms: _248  and  _251
REMARK   99  A    between atoms: _251  and  _252
REMARK  100  A    between atoms: _257  and  _258
REMARK  101  A    between atoms: _260  and  _262
REMARK  102  A    between atoms: _262  and  _263
REMARK  103  A    between atoms: _262  and  _265
REMARK  104  A    between atoms: _265  and  _266
REMARK  105  A    between atoms: _269  and  _271
REMARK  106  A    between atoms: _271  and  _272
REMARK  107  A    between atoms: _271  and  _274
REMARK  108  A    between atoms: _274  and  _275
REMARK  109  A    between atoms: _275  and  _492
REMARK  110  A    between atoms: _276  and  _278
REMARK  111  A    between atoms: _278  and  _279
REMARK  112  A    between atoms: _278  and  _281
REMARK  113  A    between atoms: _281  and  _282
REMARK  114  A    between atoms: _285  and  _287
REMARK  115  A    between atoms: _287  and  _288
REMARK  116  A    between atoms: _287  and  _290
REMARK  117  A    between atoms: _290  and  _291
REMARK  118  A    between atoms: _296  and  _297
REMARK  119  A    between atoms: _299  and  _301
REMARK  120  A    between atoms: _301  and  _302
REMARK  121  A    between atoms: _301  and  _304
REMARK  122  A    between atoms: _304  and  _305
REMARK  123  A    between atoms: _310  and  _311
REMARK  124  A    between atoms: _313  and  _315
REMARK  125  A    between atoms: _315  and  _316
REMARK  126  A    between atoms: _315  and  _318
REMARK  127  A    between atoms: _318  and  _319
REMARK  128  A    between atoms: _319  and  _320
REMARK  129  A    between atoms: _323  and  _325
REMARK  130  A    between atoms: _325  and  _326
REMARK  131  A    between atoms: _325  and  _328
REMARK  132  A    between atoms: _328  and  _329
REMARK  133  A    between atoms: _334  and  _335
REMARK  134  A    between atoms: _337  and  _339
REMARK  135  A    between atoms: _339  and  _340
REMARK  136  A    between atoms: _339  and  _342
REMARK  137  A    between atoms: _342  and  _343
REMARK  138  A    between atoms: _348  and  _350
REMARK  139  A    between atoms: _350  and  _351
REMARK  140  A    between atoms: _350  and  _353
REMARK  141  A    between atoms: _353  and  _354
REMARK  142  A    between atoms: _357  and  _359
REMARK  143  A    between atoms: _359  and  _360
REMARK  144  A    between atoms: _359  and  _362
REMARK  145  A    between atoms: _362  and  _363
REMARK  146  A    between atoms: _368  and  _370
REMARK  147  A    between atoms: _370  and  _371
REMARK  148  A    between atoms: _370  and  _373
REMARK  149  A    between atoms: _373  and  _374
REMARK  150  A    between atoms: _384  and  _386
REMARK  151  A    between atoms: _386  and  _387
REMARK  152  A    between atoms: _386  and  _389
REMARK  153  A    between atoms: _389  and  _390
REMARK  154  A    between atoms: _396  and  _398
REMARK  155  A    between atoms: _398  and  _399
REMARK  156  A    between atoms: _398  and  _401
REMARK  157  A    between atoms: _401  and  _402
REMARK  158  A    between atoms: _405  and  _407
REMARK  159  A    between atoms: _407  and  _408
REMARK  160  A    between atoms: _407  and  _410
REMARK  161  A    between atoms: _410  and  _411
REMARK  162  A    between atoms: _414  and  _416
REMARK  163  A    between atoms: _416  and  _417
REMARK  164  A    between atoms: _416  and  _419
REMARK  165  A    between atoms: _419  and  _420
REMARK  166  A    between atoms: _420  and  _421
REMARK  167  A    between atoms: _421  and  _422
REMARK  168  A    between atoms: _431  and  _433
REMARK  169  A    between atoms: _433  and  _434
REMARK  170  A    between atoms: _433  and  _436
REMARK  171  A    between atoms: _436  and  _437
REMARK  172  A    between atoms: _442  and  _444
REMARK  173  A    between atoms: _444  and  _445
REMARK  174  A    between atoms: _444  and  _447
REMARK  175  A    between atoms: _447  and  _448
REMARK  176  A    between atoms: _448  and  _449
REMARK  177  A    between atoms: _449  and  _450
REMARK  178  A    between atoms: _459  and  _461
REMARK  179  A    between atoms: _461  and  _462
REMARK  180  A    between atoms: _465  and  _467
REMARK  181  A    between atoms: _467  and  _468
REMARK  182  A    between atoms: _470  and  _472
REMARK  183  A    between atoms: _472  and  _473
REMARK  184  A    between atoms: _472  and  _475
REMARK  185  A    between atoms: _475  and  _476
REMARK  186  A    between atoms: _486  and  _488
REMARK  187  A    between atoms: _488  and  _489
REMARK  188  A    between atoms: _488  and  _491
REMARK  189  A    between atoms: _491  and  _492
REMARK  190  A    between atoms: _493  and  _495
REMARK  191  A    between atoms: _495  and  _496
REMARK  192  A    between atoms: _499  and  _501
REMARK  193  A    between atoms: _501  and  _502
REMARK  194  A    between atoms: _501  and  _504
REMARK  195  A    between atoms: _504  and  _505
REMARK  196  A    between atoms: _508  and  _510
REMARK  197  A    between atoms: _510  and  _511
REMARK  198  A    between atoms: _510  and  _513
REMARK  199  A    between atoms: _513  and  _514
REMARK  200  A    between atoms: _519  and  _520
REMARK  201  A    between atoms: _522  and  _524
REMARK  202  A    between atoms: _524  and  _525
REMARK  203  A    between atoms: _524  and  _527
REMARK  204  A    between atoms: _527  and  _528
REMARK  205  A    between atoms: _530  and  _532
REMARK  206  A    between atoms: _532  and  _533
REMARK  207  A    between atoms: _532  and  _535
REMARK  208  A    between atoms: _535  and  _536
REMARK  209  A    between atoms: _542  and  _544
REMARK  210  A    between atoms: _544  and  _545
REMARK  211  A    between atoms: _544  and  _547
REMARK  212  A    between atoms: _547  and  _548
REMARK  213  A    between atoms: _551  and  _553
REMARK  214  A    between atoms: _553  and  _554
REMARK  215  A    between atoms: _553  and  _556
REMARK  216  A    between atoms: _556  and  _557
REMARK  217  A    between atoms: _559  and  _561
REMARK  218  A    between atoms: _561  and  _562
REMARK  219  A    between atoms: _561  and  _564
REMARK  220  A    between atoms: _564  and  _565
REMARK  221  A    between atoms: _570  and  _572
REMARK  222  A    between atoms: _572  and  _573
REMARK  223  A    between atoms: _572  and  _575
REMARK  224  A    between atoms: _575  and  _576
REMARK  225  A    between atoms: _581  and  _583
REMARK  226  A    between atoms: _583  and  _584
REMARK  227  A    between atoms: _583  and  _586
REMARK  228  A    between atoms: _586  and  _587
REMARK  229  A    between atoms: _590  and  _592
REMARK  230  A    between atoms: _592  and  _593
REMARK  231  A    between atoms: _592  and  _595
REMARK  232  A    between atoms: _595  and  _596
REMARK  233  A    between atoms: _601  and  _602
REMARK  234  A    between atoms: _604  and  _606
REMARK  235  A    between atoms: _606  and  _607
REMARK  236  A    between atoms: _606  and  _609
REMARK  237  A    between atoms: _609  and  _610
REMARK  238  A    between atoms: _615  and  _616
REMARK  239  A    between atoms: _618  and  _620
REMARK  240  A    between atoms: _620  and  _621
REMARK  241  A    between atoms: _620  and  _623
REMARK  242  A    between atoms: _626  and  _628
REMARK  243  A    between atoms: _628  and  _629
REMARK  244  A    between atoms: _628  and  _631
REMARK  245  A    between atoms: _631  and  _632
REMARK  246  A    between atoms: _637  and  _639
REMARK  247  A    between atoms: _639  and  _640
REMARK  248  A    between atoms: _643  and  _645
REMARK  249  A    between atoms: _645  and  _646
REMARK  250  A    between atoms: _645  and  _648
REMARK  251  A    between atoms: _648  and  _649
REMARK  252  A    between atoms: _649  and  _650
REMARK  253  A    between atoms: _650  and  _651
REMARK  254  A    between atoms: _660  and  _662
REMARK  255  A    between atoms: _662  and  _663
REMARK  256  A    between atoms: _662  and  _665
REMARK  257  A    between atoms: _665  and  _666
REMARK  258  A    between atoms: _669  and  _671
REMARK  259  A    between atoms: _671  and  _672
REMARK  260  A    between atoms: _671  and  _674
REMARK  261  A    between atoms: _674  and  _675
REMARK  262  A    between atoms: _678  and  _680
REMARK  263  A    between atoms: _680  and  _681
REMARK  264  A    between atoms: _680  and  _683
REMARK  265  A    between atoms: _683  and  _684
REMARK                            x       y       z     vdW  Elec       q    Type
REMARK                         _______ _______ _______ _____ _____    ______ ____
ROOT
ATOM      1  C   VAL A   4       2.198  20.245   9.090  0.00  0.00    +0.244 C 
ATOM      2  N   PRO A   5       1.600  21.430   9.150  0.00  0.00    -0.272 N 
ATOM      3  CD  PRO A   5       1.063  22.104  10.346  0.00  0.00    +0.094 C 
ATOM      4  CG  PRO A   5       0.006  23.047   9.747  0.00  0.00    +0.024 C 
ATOM      5  CB  PRO A   5       0.577  23.448   8.416  0.00  0.00    +0.031 C 
ATOM      6  CA  PRO A   5       1.268  22.165   7.935  0.00  0.00    +0.152 C 
ATOM      7  O   VAL A   4       2.519  19.736   7.992  0.00  0.00    -0.273 OA
ENDROOT
BRANCH   6   8
ATOM      8  C   PRO A   5       2.533  22.494   7.155  0.00  0.00    +0.241 C 
ATOM      9  N   GLU A   6       3.583  22.895   7.881  0.00  0.00    -0.297 N 
ATOM     10  H   GLU A   6       3.502  22.969   8.915  0.00  0.00    +0.150 HD
ATOM     11  O   PRO A   5       2.572  22.402   5.933  0.00  0.00    -0.273 OA
BRANCH   9  12
ATOM     12  CA  GLU A   6       4.853  23.231   7.217  0.00  0.00    +0.149 C 
BRANCH  12  13
ATOM     13  C   GLU A   6       5.429  22.023   6.480  0.00  0.00    +0.241 C 
ATOM     14  N   SER A   7       5.398  20.889   7.179  0.00  0.00    -0.295 N 
ATOM     15  H   SER A   7       4.937  20.889   8.111  0.00  0.00    +0.150 HD
ATOM     16  O   GLU A   6       5.868  22.079   5.330  0.00  0.00    -0.273 OA
BRANCH  14  17
ATOM     17  CA  SER A   7       5.987  19.644   6.686  0.00  0.00    +0.178 C 
BRANCH  17  18
ATOM     18  C   SER A   7       5.185  19.094   5.521  0.00  0.00    +0.243 C 
ATOM     19  N   ASN A   8       3.877  19.360   5.512  0.00  0.00    -0.298 N 
ATOM     20  H   ASN A   8       3.454  19.900   6.294  0.00  0.00    +0.150 HD
ATOM     21  O   SER A   7       5.718  18.478   4.610  0.00  0.00    -0.273 OA
BRANCH  19  22
ATOM     22  CA  ASN A   8       3.035  18.896   4.408  0.00  0.00    +0.146 C 
BRANCH  22  23
ATOM     23  C   ASN A   8       3.511  19.469   3.063  0.00  0.00    +0.227 C 
ATOM     24  O   ASN A   8       3.538  18.804   2.028  0.00  0.00    -0.286 OA
ENDBRANCH  22  23
BRANCH  22  25
ATOM     25  CB  ASN A   8       1.581  19.357   4.650  0.00  0.00    +0.112 C 
BRANCH  25  26
ATOM     26  CG  ASN A   8       0.821  18.470   5.610  0.00  0.00    +0.222 C 
ATOM     27  ND2 ASN A   8      -0.301  18.971   6.153  0.00  0.00    -0.329 N 
ATOM     28 HD21 ASN A   8      -0.859  18.397   6.817  0.00  0.00    +0.145 HD
ATOM     29 HD22 ASN A   8      -0.612  19.933   5.909  0.00  0.00    +0.145 HD
ATOM     30  OD1 ASN A   8       1.222  17.333   5.875  0.00  0.00    -0.275 OA
ENDBRANCH  25  26
ENDBRANCH  22  25
ENDBRANCH  19  22
ENDBRANCH  17  18
BRANCH  17  31
ATOM     31  CB  SER A   7       6.088  18.593   7.803  0.00  0.00    +0.166 C 
BRANCH  31  32
ATOM     32  OG  SER A   7       7.026  19.093   8.758  0.00  0.00    -0.380 OA
ATOM     33  H   SER A   7       6.702  19.957   9.116  0.00  0.00    +0.211 HD
ENDBRANCH  31  32
ENDBRANCH  17  31
ENDBRANCH  14  17
ENDBRANCH  12  13
BRANCH  12  34
ATOM     34  CB  GLU A   6       5.891  23.727   8.231  0.00  0.00    +0.041 C 
BRANCH  34  35
ATOM     35  CG  GLU A   6       5.540  25.127   8.742  0.00  0.00    +0.116 C 
BRANCH  35  36
ATOM     36  CD  GLU A   6       4.350  25.114   9.704  0.00  0.00    +0.365 C 
ATOM     37  OE2 GLU A   6       4.028  24.072  10.279  0.00  0.00    -0.246 OA
ATOM     38  OE1 GLU A   6       3.747  26.187   9.956  0.00  0.00    -0.246 OA
ENDBRANCH  35  36
ENDBRANCH  34  35
ENDBRANCH  12  34
ENDBRANCH   9  12
ENDBRANCH   6   8
BRANCH   1  39
ATOM     39  CA  VAL A   4       2.507  19.526  10.388  0.00  0.00    +0.149 C 
BRANCH  39  41
ATOM     40  C   GLY A   3       4.339  20.966  11.154  0.00  0.00    +0.243 C 
ATOM     41  N   VAL A   4       3.139  20.413  11.380  0.00  0.00    -0.297 N 
ATOM     42  H   VAL A   4       2.645  20.614  12.273  0.00  0.00    +0.150 HD
ATOM     43  O   GLY A   3       4.946  20.812  10.093  0.00  0.00    -0.273 OA
BRANCH  40  44
ATOM     44  CA  GLY A   3       4.794  21.889  12.272  0.00  0.00    +0.176 C 
BRANCH  44  47
ATOM     45  C   GLU A   2       7.094  21.936  12.957  0.00  0.00    +0.241 C 
ATOM     46  O   GLU A   2       6.914  20.973  13.712  0.00  0.00    -0.273 OA
ATOM     47  N   GLY A   3       6.154  22.451  12.145  0.00  0.00    -0.295 N 
ATOM     48  H   GLY A   3       6.373  23.205  11.463  0.00  0.00    +0.150 HD
BRANCH  45  49
ATOM     49  CA  GLU A   2       8.474  22.569  12.989  0.00  0.00    +0.149 C 
BRANCH  49  51
ATOM     50  C   ILE A   1       9.774  23.848  11.388  0.00  0.00    +0.238 C 
ATOM     51  N   GLU A   2       8.594  23.637  11.985  0.00  0.00    -0.297 N 
ATOM     52  H   GLU A   2       7.770  24.223  11.741  0.00  0.00    +0.150 HD
ATOM     53  O   ILE A   1      10.801  23.196  11.640  0.00  0.00    -0.274 OA
BRANCH  50  54
ATOM     54  CA  ILE A   1       9.818  24.935  10.322  0.00  0.00    +0.145 C 
BRANCH  54  55
ATOM     55  CB  ILE A   1       9.236  24.358   9.015  0.00  0.00    +0.025 C 
ATOM     56  CG2 ILE A   1       9.063  25.467   7.962  0.00  0.00    +0.002 C 
BRANCH  55  57
ATOM     57  CG1 ILE A   1      10.157  23.224   8.493  0.00  0.00    +0.002 C 
ATOM     58  CD1 ILE A   1       9.481  22.488   7.329  0.00  0.00    +0.000 C 
ENDBRANCH  55  57
ENDBRANCH  54  55
BRANCH  54  59
ATOM     59  N   ILE A   1      11.183  25.446  10.078  0.00  0.00    -0.238 NA
ATOM     60  H   ILE A   1      11.886  24.844   9.603  0.00  0.00    +0.142 HD
ENDBRANCH  54  59
ENDBRANCH  50  54
ENDBRANCH  49  51
BRANCH  49  61
ATOM     61  CB  GLU A   2       8.785  23.115  14.390  0.00  0.00    +0.041 C 
BRANCH  61  62
ATOM     62  CG  GLU A   2       7.812  24.222  14.799  0.00  0.00    +0.116 C 
BRANCH  62  63
ATOM     63  CD  GLU A   2       8.391  25.105  15.886  0.00  0.00    +0.365 C 
ATOM     64  OE2 GLU A   2       8.658  24.571  16.974  0.00  0.00    -0.246 OA
ATOM     65  OE1 GLU A   2       8.596  26.314  15.639  0.00  0.00    -0.246 OA
ENDBRANCH  62  63
ENDBRANCH  61  62
ENDBRANCH  49  61
ENDBRANCH  45  49
ENDBRANCH  44  47
ENDBRANCH  40  44
ENDBRANCH  39  41
BRANCH  39  66
ATOM     66  CB  VAL A   4       1.266  18.818  10.953  0.00  0.00    +0.027 C 
ATOM     67  CG2 VAL A   4       1.770  17.820  12.007  0.00  0.00    +0.002 C 
ATOM     68  CG1 VAL A   4       0.488  18.049   9.865  0.00  0.00    +0.002 C 
ENDBRANCH  39  66
ENDBRANCH   1  39
TORSDOF 28
REMARK  Name = ../refined-set-2016/1b9j/1b9j_pocket.pdb
REMARK  265 active torsions:
REMARK  status: ('A' for Active; 'I' for Inactive)
REMARK    1  A    between atoms: _1  and  _3
REMARK    2  A    between atoms: _3  and  _4
REMARK    3  A    between atoms: _3  and  _6
REMARK    4  A    between atoms: _6  and  _7
REMARK    5  A    between atoms: _12  and  _14
REMARK    6  A    between atoms: _14  and  _15
REMARK    7  A    between atoms: _17  and  _19
REMARK    8  A    between atoms: _19  and  _20
REMARK    9  A    between atoms: _19  and  _22
REMARK   10  A    between atoms: _22  and  _23
REMARK   11  A    between atoms: _25  and  _27
REMARK   12  A    between atoms: _27  and  _28
REMARK   13  A    between atoms: _27  and  _30
REMARK   14  A    between atoms: _30  and  _31
REMARK   15  A    between atoms: _31  and  _32
REMARK   16  A    between atoms: _37  and  _39
REMARK   17  A    between atoms: _39  and  _40
REMARK   18  A    between atoms: _39  and  _42
REMARK   19  A    between atoms: _42  and  _43
REMARK   20  A    between atoms: _46  and  _48
REMARK   21  A    between atoms: _48  and  _49
REMARK   22  A    between atoms: _48  and  _51
REMARK   23  A    between atoms: _51  and  _52
REMARK   24  A    between atoms: _52  and  _53
REMARK   25  A    between atoms: _56  and  _58
REMARK   26  A    between atoms: _58  and  _59
REMARK   27  A    between atoms: _61  and  _63
REMARK   28  A    between atoms: _63  and  _64
REMARK   29  A    between atoms: _63  and  _66
REMARK   30  A    between atoms: _70  and  _71
REMARK   31  A    between atoms: _76  and  _78
REMARK   32  A    between atoms: _78  and  _79
REMARK   33  A    between atoms: _78  and  _81
REMARK   34  A    between atoms: _81  and  _82
REMARK   35  A    between atoms: _82  and  _83
REMARK   36  A    between atoms: _86  and  _88
REMARK   37  A    between atoms: _88  and  _89
REMARK   38  A    between atoms: _88  and  _91
REMARK   39  A    between atoms: _91  and  _92
REMARK   40  A    between atoms: _94  and  _96
REMARK   41  A    between atoms: _96  and  _97
REMARK   42  A    between atoms: _96  and  _99
REMARK   43  A    between atoms: _99  and  _100
REMARK   44  A    between atoms: _105  and  _107
REMARK   45  A    between atoms: _107  and  _108
REMARK   46  A    between atoms: _107  and  _110
REMARK   47  A    between atoms: _110  and  _111
REMARK   48  A    between atoms: _111  and  _112
REMARK   49  A    between atoms: _112  and  _113
REMARK   50  A    between atoms: _123  and  _124
REMARK   51  A    between atoms: _129  and  _131
REMARK   52  A    between atoms: _131  and  _132
REMARK   53  A    between atoms: _131  and  _134
REMARK   54  A    between atoms: _134  and  _135
REMARK   55  A    between atoms: _140  and  _141
REMARK   56  A    between atoms: _143  and  _145
REMARK   57  A    between atoms: _145  and  _146
REMARK   58  A    between atoms: _145  and  _148
REMARK   59  A    between atoms: _148  and  _149
REMARK   60  A    between atoms: _154  and  _155
REMARK   61  A    between atoms: _157  and  _159
REMARK   62  A    between atoms: _159  and  _160
REMARK   63  A    between atoms: _159  and  _162
REMARK   64  A    between atoms: _165  and  _167
REMARK   65  A    between atoms: _167  and  _168
REMARK   66  A    between atoms: _167  and  _170
REMARK   67  A    between atoms: _170  and  _171
REMARK   68  A    between atoms: _177  and  _178
REMARK   69  A    between atoms: _183  and  _185
REMARK   70  A    between atoms: _185  and  _186
REMARK   71  A    between atoms: _185  and  _188
REMARK   72  A    between atoms: _188  and  _189
REMARK   73  A    between atoms: _191  and  _193
REMARK   74  A    between atoms: _193  and  _194
REMARK   75  A    between atoms: _193  and  _196
REMARK   76  A    between atoms: _196  and  _197
REMARK   77  A    between atoms: _197  and  _198
REMARK   78  A    between atoms: _201  and  _203
REMARK   79  A    between atoms: _203  and  _204
REMARK   80  A    between atoms: _203  and  _206
REMARK   81  A    between atoms: _206  and  _207
REMARK   82  A    between atoms: _212  and  _213
REMARK   83  A    between atoms: _215  and  _217
REMARK   84  A    between atoms: _217  and  _218
REMARK   85  A    between atoms: _217  and  _220
REMARK   86  A    between atoms: _220  and  _221
REMARK   87  A    between atoms: _226  and  _228
REMARK   88  A    between atoms: _228  and  _229
REMARK   89  A    between atoms: _228  and  _231
REMARK   90  A    between atoms: _231  and  _232
REMARK   91  A    between atoms: _237  and  _239
REMARK   92  A    between atoms: _239  and  _240
REMARK   93  A    between atoms: _239  and  _242
REMARK   94  A    between atoms: _242  and  _243
REMARK   95  A    between atoms: _243  and  _244
REMARK   96  A    between atoms: _246  and  _248
REMARK   97  A    between atoms: _248  and  _249
REMARK   98  A    between atoms: _248  and  _251
REMARK   99  A    between atoms: _251  and  _252
REMARK  100  A    between atoms: _257  and  _258
REMARK  101  A    between atoms: _260  and  _262
REMARK  102  A    between atoms: _262  and  _263
REMARK  103  A    between atoms: _262  and  _265
REMARK  104  A    between atoms: _265  and  _266
REMARK  105  A    between atoms: _269  and  _271
REMARK  106  A    between atoms: _271  and  _272
REMARK  107  A    between atoms: _271  and  _274
REMARK  108  A    between atoms: _274  and  _275
REMARK  109  A    between atoms: _275  and  _492
REMARK  110  A    between atoms: _276  and  _278
REMARK  111  A    between atoms: _278  and  _279
REMARK  112  A    between atoms: _278  and  _281
REMARK  113  A    between atoms: _281  and  _282
REMARK  114  A    between atoms: _285  and  _287
REMARK  115  A    between atoms: _287  and  _288
REMARK  116  A    between atoms: _287  and  _290
REMARK  117  A    between atoms: _290  and  _291
REMARK  118  A    between atoms: _296  and  _297
REMARK  119  A    between atoms: _299  and  _301
REMARK  120  A    between atoms: _301  and  _302
REMARK  121  A    between atoms: _301  and  _304
REMARK  122  A    between atoms: _304  and  _305
REMARK  123  A    between atoms: _310  and  _311
REMARK  124  A    between atoms: _313  and  _315
REMARK  125  A    between atoms: _315  and  _316
REMARK  126  A    between atoms: _315  and  _318
REMARK  127  A    between atoms: _318  and  _319
REMARK  128  A    between atoms: _319  and  _320
REMARK  129  A    between atoms: _323  and  _325
REMARK  130  A    between atoms: _325  and  _326
REMARK  131  A    between atoms: _325  and  _328
REMARK  132  A    between atoms: _328  and  _329
REMARK  133  A    between atoms: _334  and  _335
REMARK  134  A    between atoms: _337  and  _339
REMARK  135  A    between atoms: _339  and  _340
REMARK  136  A    between atoms: _339  and  _342
REMARK  137  A    between atoms: _342  and  _343
REMARK  138  A    between atoms: _348  and  _350
REMARK  139  A    between atoms: _350  and  _351
REMARK  140  A    between atoms: _350  and  _353
REMARK  141  A    between atoms: _353  and  _354
REMARK  142  A    between atoms: _357  and  _359
REMARK  143  A    between atoms: _359  and  _360
REMARK  144  A    between atoms: _359  and  _362
REMARK  145  A    between atoms: _362  and  _363
REMARK  146  A    between atoms: _368  and  _370
REMARK  147  A    between atoms: _370  and  _371
REMARK  148  A    between atoms: _370  and  _373
REMARK  149  A    between atoms: _373  and  _374
REMARK  150  A    between atoms: _384  and  _386
REMARK  151  A    between atoms: _386  and  _387
REMARK  152  A    between atoms: _386  and  _389
REMARK  153  A    between atoms: _389  and  _390
REMARK  154  A    between atoms: _396  and  _398
REMARK  155  A    between atoms: _398  and  _399
REMARK  156  A    between atoms: _398  and  _401
REMARK  157  A    between atoms: _401  and  _402
REMARK  158  A    between atoms: _405  and  _407
REMARK  159  A    between atoms: _407  and  _408
REMARK  160  A    between atoms: _407  and  _410
REMARK  161  A    between atoms: _410  and  _411
REMARK  162  A    between atoms: _414  and  _416
REMARK  163  A    between atoms: _416  and  _417
REMARK  164  A    between atoms: _416  and  _419
REMARK  165  A    between atoms: _419  and  _420
REMARK  166  A    between atoms: _420  and  _421
REMARK  167  A    between atoms: _421  and  _422
REMARK  168  A    between atoms: _431  and  _433
REMARK  169  A    between atoms: _433  and  _434
REMARK  170  A    between atoms: _433  and  _436
REMARK  171  A    between atoms: _436  and  _437
REMARK  172  A    between atoms: _442  and  _444
REMARK  173  A    between atoms: _444  and  _445
REMARK  174  A    between atoms: _444  and  _447
REMARK  175  A    between atoms: _447  and  _448
REMARK  176  A    between atoms: _448  and  _449
REMARK  177  A    between atoms: _449  and  _450
REMARK  178  A    between atoms: _459  and  _461
REMARK  179  A    between atoms: _461  and  _462
REMARK  180  A    between atoms: _465  and  _467
REMARK  181  A    between atoms: _467  and  _468
REMARK  182  A    between atoms: _470  and  _472
REMARK  183  A    between atoms: _472  and  _473
REMARK  184  A    between atoms: _472  and  _475
REMARK  185  A    between atoms: _475  and  _476
REMARK  186  A    between atoms: _486  and  _488
REMARK  187  A    between atoms: _488  and  _489
REMARK  188  A    between atoms: _488  and  _491
REMARK  189  A    between atoms: _491  and  _492
REMARK  190  A    between atoms: _493  and  _495
REMARK  191  A    between atoms: _495  and  _496
REMARK  192  A    between atoms: _499  and  _501
REMARK  193  A    between atoms: _501  and  _502
REMARK  194  A    between atoms: _501  and  _504
REMARK  195  A    between atoms: _504  and  _505
REMARK  196  A    between atoms: _508  and  _510
REMARK  197  A    between atoms: _510  and  _511
REMARK  198  A    between atoms: _510  and  _513
REMARK  199  A    between atoms: _513  and  _514
REMARK  200  A    between atoms: _519  and  _520
REMARK  201  A    between atoms: _522  and  _524
REMARK  202  A    between atoms: _524  and  _525
REMARK  203  A    between atoms: _524  and  _527
REMARK  204  A    between atoms: _527  and  _528
REMARK  205  A    between atoms: _530  and  _532
REMARK  206  A    between atoms: _532  and  _533
REMARK  207  A    between atoms: _532  and  _535
REMARK  208  A    between atoms: _535  and  _536
REMARK  209  A    between atoms: _542  and  _544
REMARK  210  A    between atoms: _544  and  _545
REMARK  211  A    between atoms: _544  and  _547
REMARK  212  A    between atoms: _547  and  _548
REMARK  213  A    between atoms: _551  and  _553
REMARK  214  A    between atoms: _553  and  _554
REMARK  215  A    between atoms: _553  and  _556
REMARK  216  A    between atoms: _556  and  _557
REMARK  217  A    between atoms: _559  and  _561
REMARK  218  A    between atoms: _561  and  _562
REMARK  219  A    between atoms: _561  and  _564
REMARK  220  A    between atoms: _564  and  _565
REMARK  221  A    between atoms: _570  and  _572
REMARK  222  A    between atoms: _572  and  _573
REMARK  223  A    between atoms: _572  and  _575
REMARK  224  A    between atoms: _575  and  _576
REMARK  225  A    between atoms: _581  and  _583
REMARK  226  A    between atoms: _583  and  _584
REMARK  227  A    between atoms: _583  and  _586
REMARK  228  A    between atoms: _586  and  _587
REMARK  229  A    between atoms: _590  and  _592
REMARK  230  A    between atoms: _592  and  _593
REMARK  231  A    between atoms: _592  and  _595
REMARK  232  A    between atoms: _595  and  _596
REMARK  233  A    between atoms: _601  and  _602
REMARK  234  A    between atoms: _604  and  _606
REMARK  235  A    between atoms: _606  and  _607
REMARK  236  A    between atoms: _606  and  _609
REMARK  237  A    between atoms: _609  and  _610
REMARK  238  A    between atoms: _615  and  _616
REMARK  239  A    between atoms: _618  and  _620
REMARK  240  A    between atoms: _620  and  _621
REMARK  241  A    between atoms: _620  and  _623
REMARK  242  A    between atoms: _626  and  _628
REMARK  243  A    between atoms: _628  and  _629
REMARK  244  A    between atoms: _628  and  _631
REMARK  245  A    between atoms: _631  and  _632
REMARK  246  A    between atoms: _637  and  _639
REMARK  247  A    between atoms: _639  and  _640
REMARK  248  A    between atoms: _643  and  _645
REMARK  249  A    between atoms: _645  and  _646
REMARK  250  A    between atoms: _645  and  _648
REMARK  251  A    between atoms: _648  and  _649
REMARK  252  A    between atoms: _649  and  _650
REMARK  253  A    between atoms: _650  and  _651
REMARK  254  A    between atoms: _660  and  _662
REMARK  255  A    between atoms: _662  and  _663
REMARK  256  A    between atoms: _662  and  _665
REMARK  257  A    between atoms: _665  and  _666
REMARK  258  A    between atoms: _669  and  _671
REMARK  259  A    between atoms: _671  and  _672
REMARK  260  A    between atoms: _671  and  _674
REMARK  261  A    between atoms: _674  and  _675
REMARK  262  A    between atoms: _678  and  _680
REMARK  263  A    between atoms: _680  and  _681
REMARK  264  A    between atoms: _680  and  _683
REMARK  265  A    between atoms: _683  and  _684
REMARK                            x       y       z     vdW  Elec       q    Type
REMARK                         _______ _______ _______ _____ _____    ______ ____
ROOT
ATOM      1  NE  ARG A   1       4.887  14.521   3.897  0.00  0.00    -0.265 N 
ATOM      2  CZ  ARG A   1       4.326  15.192   4.904  0.00  0.00    +0.342 C 
ATOM      3  NH2 ARG A   1       5.065  15.627   5.940  0.00  0.00    -0.292 N 
ATOM      4 HH21 ARG A   1       4.613  16.149   6.718  0.00  0.00    +0.255 HD
ATOM      5 HH22 ARG A   1       6.088  15.441   5.963  0.00  0.00    +0.255 HD
ATOM      6  NH1 ARG A   1       3.030  15.449   4.918  0.00  0.00    -0.292 N 
ATOM      7 HH11 ARG A   1       2.612  15.974   5.713  0.00  0.00    +0.255 HD
ATOM      8 HH12 ARG A   1       2.427  15.126   4.134  0.00  0.00    +0.255 HD
ATOM      9  HE  ARG A   1       4.291  14.163   3.123  0.00  0.00    +0.259 HD
ENDROOT
BRANCH   1  10
ATOM     10  CD  ARG A   1       6.329  14.283   3.868  0.00  0.00    +0.174 C 
BRANCH  10  11
ATOM     11  CG  ARG A   1       7.132  15.527   3.459  0.00  0.00    +0.045 C 
BRANCH  11  12
ATOM     12  CB  ARG A   1       6.752  15.902   2.017  0.00  0.00    +0.029 C 
BRANCH  12  13
ATOM     13  CA  ARG A   1       7.612  17.013   1.411  0.00  0.00    +0.133 C 
BRANCH  13  14
ATOM     14  N   ARG A   1       7.326  18.279   2.125  0.00  0.00    -0.239 NA
ATOM     15  H   ARG A   1       6.537  18.342   2.799  0.00  0.00    +0.142 HD
ENDBRANCH  13  14
BRANCH  13  16
ATOM     16  C   ARG A   1       7.418  17.114  -0.090  0.00  0.00    +0.224 C 
ATOM     17  O   ARG A   1       8.060  16.372  -0.859  0.00  0.00    -0.287 OA
ENDBRANCH  13  16
ENDBRANCH  12  13
ENDBRANCH  11  12
ENDBRANCH  10  11
ENDBRANCH   1  10
TORSDOF 6
REMARK  Name = ../refined-set-2016/1b9j/1b9j_pocket.pdb
REMARK  265 active torsions:
REMARK  status: ('A' for Active; 'I' for Inactive)
REMARK    1  A    between atoms: _1  and  _3
REMARK    2  A    between atoms: _3  and  _4
REMARK    3  A    between atoms: _3  and  _6
REMARK    4  A    between atoms: _6  and  _7
REMARK    5  A    between atoms: _12  and  _14
REMARK    6  A    between atoms: _14  and  _15
REMARK    7  A    between atoms: _17  and  _19
REMARK    8  A    between atoms: _19  and  _20
REMARK    9  A    between atoms: _19  and  _22
REMARK   10  A    between atoms: _22  and  _23
REMARK   11  A    between atoms: _25  and  _27
REMARK   12  A    between atoms: _27  and  _28
REMARK   13  A    between atoms: _27  and  _30
REMARK   14  A    between atoms: _30  and  _31
REMARK   15  A    between atoms: _31  and  _32
REMARK   16  A    between atoms: _37  and  _39
REMARK   17  A    between atoms: _39  and  _40
REMARK   18  A    between atoms: _39  and  _42
REMARK   19  A    between atoms: _42  and  _43
REMARK   20  A    between atoms: _46  and  _48
REMARK   21  A    between atoms: _48  and  _49
REMARK   22  A    between atoms: _48  and  _51
REMARK   23  A    between atoms: _51  and  _52
REMARK   24  A    between atoms: _52  and  _53
REMARK   25  A    between atoms: _56  and  _58
REMARK   26  A    between atoms: _58  and  _59
REMARK   27  A    between atoms: _61  and  _63
REMARK   28  A    between atoms: _63  and  _64
REMARK   29  A    between atoms: _63  and  _66
REMARK   30  A    between atoms: _70  and  _71
REMARK   31  A    between atoms: _76  and  _78
REMARK   32  A    between atoms: _78  and  _79
REMARK   33  A    between atoms: _78  and  _81
REMARK   34  A    between atoms: _81  and  _82
REMARK   35  A    between atoms: _82  and  _83
REMARK   36  A    between atoms: _86  and  _88
REMARK   37  A    between atoms: _88  and  _89
REMARK   38  A    between atoms: _88  and  _91
REMARK   39  A    between atoms: _91  and  _92
REMARK   40  A    between atoms: _94  and  _96
REMARK   41  A    between atoms: _96  and  _97
REMARK   42  A    between atoms: _96  and  _99
REMARK   43  A    between atoms: _99  and  _100
REMARK   44  A    between atoms: _105  and  _107
REMARK   45  A    between atoms: _107  and  _108
REMARK   46  A    between atoms: _107  and  _110
REMARK   47  A    between atoms: _110  and  _111
REMARK   48  A    between atoms: _111  and  _112
REMARK   49  A    between atoms: _112  and  _113
REMARK   50  A    between atoms: _123  and  _124
REMARK   51  A    between atoms: _129  and  _131
REMARK   52  A    between atoms: _131  and  _132
REMARK   53  A    between atoms: _131  and  _134
REMARK   54  A    between atoms: _134  and  _135
REMARK   55  A    between atoms: _140  and  _141
REMARK   56  A    between atoms: _143  and  _145
REMARK   57  A    between atoms: _145  and  _146
REMARK   58  A    between atoms: _145  and  _148
REMARK   59  A    between atoms: _148  and  _149
REMARK   60  A    between atoms: _154  and  _155
REMARK   61  A    between atoms: _157  and  _159
REMARK   62  A    between atoms: _159  and  _160
REMARK   63  A    between atoms: _159  and  _162
REMARK   64  A    between atoms: _165  and  _167
REMARK   65  A    between atoms: _167  and  _168
REMARK   66  A    between atoms: _167  and  _170
REMARK   67  A    between atoms: _170  and  _171
REMARK   68  A    between atoms: _177  and  _178
REMARK   69  A    between atoms: _183  and  _185
REMARK   70  A    between atoms: _185  and  _186
REMARK   71  A    between atoms: _185  and  _188
REMARK   72  A    between atoms: _188  and  _189
REMARK   73  A    between atoms: _191  and  _193
REMARK   74  A    between atoms: _193  and  _194
REMARK   75  A    between atoms: _193  and  _196
REMARK   76  A    between atoms: _196  and  _197
REMARK   77  A    between atoms: _197  and  _198
REMARK   78  A    between atoms: _201  and  _203
REMARK   79  A    between atoms: _203  and  _204
REMARK   80  A    between atoms: _203  and  _206
REMARK   81  A    between atoms: _206  and  _207
REMARK   82  A    between atoms: _212  and  _213
REMARK   83  A    between atoms: _215  and  _217
REMARK   84  A    between atoms: _217  and  _218
REMARK   85  A    between atoms: _217  and  _220
REMARK   86  A    between atoms: _220  and  _221
REMARK   87  A    between atoms: _226  and  _228
REMARK   88  A    between atoms: _228  and  _229
REMARK   89  A    between atoms: _228  and  _231
REMARK   90  A    between atoms: _231  and  _232
REMARK   91  A    between atoms: _237  and  _239
REMARK   92  A    between atoms: _239  and  _240
REMARK   93  A    between atoms: _239  and  _242
REMARK   94  A    between atoms: _242  and  _243
REMARK   95  A    between atoms: _243  and  _244
REMARK   96  A    between atoms: _246  and  _248
REMARK   97  A    between atoms: _248  and  _249
REMARK   98  A    between atoms: _248  and  _251
REMARK   99  A    between atoms: _251  and  _252
REMARK  100  A    between atoms: _257  and  _258
REMARK  101  A    between atoms: _260  and  _262
REMARK  102  A    between atoms: _262  and  _263
REMARK  103  A    between atoms: _262  and  _265
REMARK  104  A    between atoms: _265  and  _266
REMARK  105  A    between atoms: _269  and  _271
REMARK  106  A    between atoms: _271  and  _272
REMARK  107  A    between atoms: _271  and  _274
REMARK  108  A    between atoms: _274  and  _275
REMARK  109  A    between atoms: _275  and  _492
REMARK  110  A    between atoms: _276  and  _278
REMARK  111  A    between atoms: _278  and  _279
REMARK  112  A    between atoms: _278  and  _281
REMARK  113  A    between atoms: _281  and  _282
REMARK  114  A    between atoms: _285  and  _287
REMARK  115  A    between atoms: _287  and  _288
REMARK  116  A    between atoms: _287  and  _290
REMARK  117  A    between atoms: _290  and  _291
REMARK  118  A    between atoms: _296  and  _297
REMARK  119  A    between atoms: _299  and  _301
REMARK  120  A    between atoms: _301  and  _302
REMARK  121  A    between atoms: _301  and  _304
REMARK  122  A    between atoms: _304  and  _305
REMARK  123  A    between atoms: _310  and  _311
REMARK  124  A    between atoms: _313  and  _315
REMARK  125  A    between atoms: _315  and  _316
REMARK  126  A    between atoms: _315  and  _318
REMARK  127  A    between atoms: _318  and  _319
REMARK  128  A    between atoms: _319  and  _320
REMARK  129  A    between atoms: _323  and  _325
REMARK  130  A    between atoms: _325  and  _326
REMARK  131  A    between atoms: _325  and  _328
REMARK  132  A    between atoms: _328  and  _329
REMARK  133  A    between atoms: _334  and  _335
REMARK  134  A    between atoms: _337  and  _339
REMARK  135  A    between atoms: _339  and  _340
REMARK  136  A    between atoms: _339  and  _342
REMARK  137  A    between atoms: _342  and  _343
REMARK  138  A    between atoms: _348  and  _350
REMARK  139  A    between atoms: _350  and  _351
REMARK  140  A    between atoms: _350  and  _353
REMARK  141  A    between atoms: _353  and  _354
REMARK  142  A    between atoms: _357  and  _359
REMARK  143  A    between atoms: _359  and  _360
REMARK  144  A    between atoms: _359  and  _362
REMARK  145  A    between atoms: _362  and  _363
REMARK  146  A    between atoms: _368  and  _370
REMARK  147  A    between atoms: _370  and  _371
REMARK  148  A    between atoms: _370  and  _373
REMARK  149  A    between atoms: _373  and  _374
REMARK  150  A    between atoms: _384  and  _386
REMARK  151  A    between atoms: _386  and  _387
REMARK  152  A    between atoms: _386  and  _389
REMARK  153  A    between atoms: _389  and  _390
REMARK  154  A    between atoms: _396  and  _398
REMARK  155  A    between atoms: _398  and  _399
REMARK  156  A    between atoms: _398  and  _401
REMARK  157  A    between atoms: _401  and  _402
REMARK  158  A    between atoms: _405  and  _407
REMARK  159  A    between atoms: _407  and  _408
REMARK  160  A    between atoms: _407  and  _410
REMARK  161  A    between atoms: _410  and  _411
REMARK  162  A    between atoms: _414  and  _416
REMARK  163  A    between atoms: _416  and  _417
REMARK  164  A    between atoms: _416  and  _419
REMARK  165  A    between atoms: _419  and  _420
REMARK  166  A    between atoms: _420  and  _421
REMARK  167  A    between atoms: _421  and  _422
REMARK  168  A    between atoms: _431  and  _433
REMARK  169  A    between atoms: _433  and  _434
REMARK  170  A    between atoms: _433  and  _436
REMARK  171  A    between atoms: _436  and  _437
REMARK  172  A    between atoms: _442  and  _444
REMARK  173  A    between atoms: _444  and  _445
REMARK  174  A    between atoms: _444  and  _447
REMARK  175  A    between atoms: _447  and  _448
REMARK  176  A    between atoms: _448  and  _449
REMARK  177  A    between atoms: _449  and  _450
REMARK  178  A    between atoms: _459  and  _461
REMARK  179  A    between atoms: _461  and  _462
REMARK  180  A    between atoms: _465  and  _467
REMARK  181  A    between atoms: _467  and  _468
REMARK  182  A    between atoms: _470  and  _472
REMARK  183  A    between atoms: _472  and  _473
REMARK  184  A    between atoms: _472  and  _475
REMARK  185  A    between atoms: _475  and  _476
REMARK  186  A    between atoms: _486  and  _488
REMARK  187  A    between atoms: _488  and  _489
REMARK  188  A    between atoms: _488  and  _491
REMARK  189  A    between atoms: _491  and  _492
REMARK  190  A    between atoms: _493  and  _495
REMARK  191  A    between atoms: _495  and  _496
REMARK  192  A    between atoms: _499  and  _501
REMARK  193  A    between atoms: _501  and  _502
REMARK  194  A    between atoms: _501  and  _504
REMARK  195  A    between atoms: _504  and  _505
REMARK  196  A    between atoms: _508  and  _510
REMARK  197  A    between atoms: _510  and  _511
REMARK  198  A    between atoms: _510  and  _513
REMARK  199  A    between atoms: _513  and  _514
REMARK  200  A    between atoms: _519  and  _520
REMARK  201  A    between atoms: _522  and  _524
REMARK  202  A    between atoms: _524  and  _525
REMARK  203  A    between atoms: _524  and  _527
REMARK  204  A    between atoms: _527  and  _528
REMARK  205  A    between atoms: _530  and  _532
REMARK  206  A    between atoms: _532  and  _533
REMARK  207  A    between atoms: _532  and  _535
REMARK  208  A    between atoms: _535  and  _536
REMARK  209  A    between atoms: _542  and  _544
REMARK  210  A    between atoms: _544  and  _545
REMARK  211  A    between atoms: _544  and  _547
REMARK  212  A    between atoms: _547  and  _548
REMARK  213  A    between atoms: _551  and  _553
REMARK  214  A    between atoms: _553  and  _554
REMARK  215  A    between atoms: _553  and  _556
REMARK  216  A    between atoms: _556  and  _557
REMARK  217  A    between atoms: _559  and  _561
REMARK  218  A    between atoms: _561  and  _562
REMARK  219  A    between atoms: _561  and  _564
REMARK  220  A    between atoms: _564  and  _565
REMARK  221  A    between atoms: _570  and  _572
REMARK  222  A    between atoms: _572  and  _573
REMARK  223  A    between atoms: _572  and  _575
REMARK  224  A    between atoms: _575  and  _576
REMARK  225  A    between atoms: _581  and  _583
REMARK  226  A    between atoms: _583  and  _584
REMARK  227  A    between atoms: _583  and  _586
REMARK  228  A    between atoms: _586  and  _587
REMARK  229  A    between atoms: _590  and  _592
REMARK  230  A    between atoms: _592  and  _593
REMARK  231  A    between atoms: _592  and  _595
REMARK  232  A    between atoms: _595  and  _596
REMARK  233  A    between atoms: _601  and  _602
REMARK  234  A    between atoms: _604  and  _606
REMARK  235  A    between atoms: _606  and  _607
REMARK  236  A    between atoms: _606  and  _609
REMARK  237  A    between atoms: _609  and  _610
REMARK  238  A    between atoms: _615  and  _616
REMARK  239  A    between atoms: _618  and  _620
REMARK  240  A    between atoms: _620  and  _621
REMARK  241  A    between atoms: _620  and  _623
REMARK  242  A    between atoms: _626  and  _628
REMARK  243  A    between atoms: _628  and  _629
REMARK  244  A    between atoms: _628  and  _631
REMARK  245  A    between atoms: _631  and  _632
REMARK  246  A    between atoms: _637  and  _639
REMARK  247  A    between atoms: _639  and  _640
REMARK  248  A    between atoms: _643  and  _645
REMARK  249  A    between atoms: _645  and  _646
REMARK  250  A    between atoms: _645  and  _648
REMARK  251  A    between atoms: _648  and  _649
REMARK  252  A    between atoms: _649  and  _650
REMARK  253  A    between atoms: _650  and  _651
REMARK  254  A    between atoms: _660  and  _662
REMARK  255  A    between atoms: _662  and  _663
REMARK  256  A    between atoms: _662  and  _665
REMARK  257  A    between atoms: _665  and  _666
REMARK  258  A    between atoms: _669  and  _671
REMARK  259  A    between atoms: _671  and  _672
REMARK  260  A    between atoms: _671  and  _674
REMARK  261  A    between atoms: _674  and  _675
REMARK  262  A    between atoms: _678  and  _680
REMARK  263  A    between atoms: _680  and  _681
REMARK  264  A    between atoms: _680  and  _683
REMARK  265  A    between atoms: _683  and  _684
REMARK                            x       y       z     vdW  Elec       q    Type
REMARK                         _______ _______ _______ _____ _____    ______ ____
ROOT
ATOM      1  CA  TYR A   2      14.849  21.507  14.889  0.00  0.00    +0.141 C 
ENDROOT
BRANCH   1   4
ATOM      2  C   PRO A   1      13.905  23.386  16.136  0.00  0.00    +0.239 C 
ATOM      3  O   PRO A   1      13.632  22.660  17.106  0.00  0.00    -0.274 OA
ATOM      4  N   TYR A   2      14.415  22.877  15.004  0.00  0.00    -0.298 N 
ATOM      5  H   TYR A   2      14.501  23.498  14.174  0.00  0.00    +0.150 HD
BRANCH   2   7
ATOM      6  N   PRO A   1      14.270  25.557  15.069  0.00  0.00    -0.210 NA
ATOM      7  CA  PRO A   1      13.543  24.863  16.120  0.00  0.00    +0.149 C 
ATOM      8  CB  PRO A   1      12.069  25.080  15.729  0.00  0.00    +0.028 C 
ATOM      9  CG  PRO A   1      12.093  25.274  14.235  0.00  0.00    +0.021 C 
ATOM     10  CD  PRO A   1      13.383  26.070  14.009  0.00  0.00    +0.089 C 
ENDBRANCH   2   7
ENDBRANCH   1   4
BRANCH   1  11
ATOM     11  C   TYR A   2      16.368  21.367  14.913  0.00  0.00    +0.227 C 
ATOM     12  O   TYR A   2      16.865  20.338  14.473  0.00  0.00    -0.286 OA
ENDBRANCH   1  11
BRANCH   1  13
ATOM     13  CB  TYR A   2      14.217  20.827  13.682  0.00  0.00    +0.054 C 
BRANCH  13  14
ATOM     14  CG  TYR A   2      12.934  20.054  13.959  0.00  0.00    -0.020 A 
ATOM     15  CD2 TYR A   2      13.022  18.778  14.500  0.00  0.00    -0.001 A 
ATOM     16  CE2 TYR A   2      11.901  18.005  14.771  0.00  0.00    +0.036 A 
ATOM     17  CZ  TYR A   2      10.660  18.527  14.471  0.00  0.00    +0.134 A 
ATOM     18  CE1 TYR A   2      10.530  19.790  13.929  0.00  0.00    +0.036 A 
ATOM     19  CD1 TYR A   2      11.680  20.550  13.659  0.00  0.00    -0.001 A 
BRANCH  17  20
ATOM     20  OH  TYR A   2       9.540  17.754  14.695  0.00  0.00    -0.506 OA
ATOM     21  HH  TYR A   2       9.812  16.885  15.084  0.00  0.00    +0.292 HD
ENDBRANCH  17  20
ENDBRANCH  13  14
ENDBRANCH   1  13
TORSDOF 6
REMARK  Name = ../refined-set-2016/1b9j/1b9j_pocket.pdb
REMARK  265 active torsions:
REMARK  status: ('A' for Active; 'I' for Inactive)
REMARK    1  A    between atoms: _1  and  _3
REMARK    2  A    between atoms: _3  and  _4
REMARK    3  A    between atoms: _3  and  _6
REMARK    4  A    between atoms: _6  and  _7
REMARK    5  A    between atoms: _12  and  _14
REMARK    6  A    between atoms: _14  and  _15
REMARK    7  A    between atoms: _17  and  _19
REMARK    8  A    between atoms: _19  and  _20
REMARK    9  A    between atoms: _19  and  _22
REMARK   10  A    between atoms: _22  and  _23
REMARK   11  A    between atoms: _25  and  _27
REMARK   12  A    between atoms: _27  and  _28
REMARK   13  A    between atoms: _27  and  _30
REMARK   14  A    between atoms: _30  and  _31
REMARK   15  A    between atoms: _31  and  _32
REMARK   16  A    between atoms: _37  and  _39
REMARK   17  A    between atoms: _39  and  _40
REMARK   18  A    between atoms: _39  and  _42
REMARK   19  A    between atoms: _42  and  _43
REMARK   20  A    between atoms: _46  and  _48
REMARK   21  A    between atoms: _48  and  _49
REMARK   22  A    between atoms: _48  and  _51
REMARK   23  A    between atoms: _51  and  _52
REMARK   24  A    between atoms: _52  and  _53
REMARK   25  A    between atoms: _56  and  _58
REMARK   26  A    between atoms: _58  and  _59
REMARK   27  A    between atoms: _61  and  _63
REMARK   28  A    between atoms: _63  and  _64
REMARK   29  A    between atoms: _63  and  _66
REMARK   30  A    between atoms: _70  and  _71
REMARK   31  A    between atoms: _76  and  _78
REMARK   32  A    between atoms: _78  and  _79
REMARK   33  A    between atoms: _78  and  _81
REMARK   34  A    between atoms: _81  and  _82
REMARK   35  A    between atoms: _82  and  _83
REMARK   36  A    between atoms: _86  and  _88
REMARK   37  A    between atoms: _88  and  _89
REMARK   38  A    between atoms: _88  and  _91
REMARK   39  A    between atoms: _91  and  _92
REMARK   40  A    between atoms: _94  and  _96
REMARK   41  A    between atoms: _96  and  _97
REMARK   42  A    between atoms: _96  and  _99
REMARK   43  A    between atoms: _99  and  _100
REMARK   44  A    between atoms: _105  and  _107
REMARK   45  A    between atoms: _107  and  _108
REMARK   46  A    between atoms: _107  and  _110
REMARK   47  A    between atoms: _110  and  _111
REMARK   48  A    between atoms: _111  and  _112
REMARK   49  A    between atoms: _112  and  _113
REMARK   50  A    between atoms: _123  and  _124
REMARK   51  A    between atoms: _129  and  _131
REMARK   52  A    between atoms: _131  and  _132
REMARK   53  A    between atoms: _131  and  _134
REMARK   54  A    between atoms: _134  and  _135
REMARK   55  A    between atoms: _140  and  _141
REMARK   56  A    between atoms: _143  and  _145
REMARK   57  A    between atoms: _145  and  _146
REMARK   58  A    between atoms: _145  and  _148
REMARK   59  A    between atoms: _148  and  _149
REMARK   60  A    between atoms: _154  and  _155
REMARK   61  A    between atoms: _157  and  _159
REMARK   62  A    between atoms: _159  and  _160
REMARK   63  A    between atoms: _159  and  _162
REMARK   64  A    between atoms: _165  and  _167
REMARK   65  A    between atoms: _167  and  _168
REMARK   66  A    between atoms: _167  and  _170
REMARK   67  A    between atoms: _170  and  _171
REMARK   68  A    between atoms: _177  and  _178
REMARK   69  A    between atoms: _183  and  _185
REMARK   70  A    between atoms: _185  and  _186
REMARK   71  A    between atoms: _185  and  _188
REMARK   72  A    between atoms: _188  and  _189
REMARK   73  A    between atoms: _191  and  _193
REMARK   74  A    between atoms: _193  and  _194
REMARK   75  A    between atoms: _193  and  _196
REMARK   76  A    between atoms: _196  and  _197
REMARK   77  A    between atoms: _197  and  _198
REMARK   78  A    between atoms: _201  and  _203
REMARK   79  A    between atoms: _203  and  _204
REMARK   80  A    between atoms: _203  and  _206
REMARK   81  A    between atoms: _206  and  _207
REMARK   82  A    between atoms: _212  and  _213
REMARK   83  A    between atoms: _215  and  _217
REMARK   84  A    between atoms: _217  and  _218
REMARK   85  A    between atoms: _217  and  _220
REMARK   86  A    between atoms: _220  and  _221
REMARK   87  A    between atoms: _226  and  _228
REMARK   88  A    between atoms: _228  and  _229
REMARK   89  A    between atoms: _228  and  _231
REMARK   90  A    between atoms: _231  and  _232
REMARK   91  A    between atoms: _237  and  _239
REMARK   92  A    between atoms: _239  and  _240
REMARK   93  A    between atoms: _239  and  _242
REMARK   94  A    between atoms: _242  and  _243
REMARK   95  A    between atoms: _243  and  _244
REMARK   96  A    between atoms: _246  and  _248
REMARK   97  A    between atoms: _248  and  _249
REMARK   98  A    between atoms: _248  and  _251
REMARK   99  A    between atoms: _251  and  _252
REMARK  100  A    between atoms: _257  and  _258
REMARK  101  A    between atoms: _260  and  _262
REMARK  102  A    between atoms: _262  and  _263
REMARK  103  A    between atoms: _262  and  _265
REMARK  104  A    between atoms: _265  and  _266
REMARK  105  A    between atoms: _269  and  _271
REMARK  106  A    between atoms: _271  and  _272
REMARK  107  A    between atoms: _271  and  _274
REMARK  108  A    between atoms: _274  and  _275
REMARK  109  A    between atoms: _275  and  _492
REMARK  110  A    between atoms: _276  and  _278
REMARK  111  A    between atoms: _278  and  _279
REMARK  112  A    between atoms: _278  and  _281
REMARK  113  A    between atoms: _281  and  _282
REMARK  114  A    between atoms: _285  and  _287
REMARK  115  A    between atoms: _287  and  _288
REMARK  116  A    between atoms: _287  and  _290
REMARK  117  A    between atoms: _290  and  _291
REMARK  118  A    between atoms: _296  and  _297
REMARK  119  A    between atoms: _299  and  _301
REMARK  120  A    between atoms: _301  and  _302
REMARK  121  A    between atoms: _301  and  _304
REMARK  122  A    between atoms: _304  and  _305
REMARK  123  A    between atoms: _310  and  _311
REMARK  124  A    between atoms: _313  and  _315
REMARK  125  A    between atoms: _315  and  _316
REMARK  126  A    between atoms: _315  and  _318
REMARK  127  A    between atoms: _318  and  _319
REMARK  128  A    between atoms: _319  and  _320
REMARK  129  A    between atoms: _323  and  _325
REMARK  130  A    between atoms: _325  and  _326
REMARK  131  A    between atoms: _325  and  _328
REMARK  132  A    between atoms: _328  and  _329
REMARK  133  A    between atoms: _334  and  _335
REMARK  134  A    between atoms: _337  and  _339
REMARK  135  A    between atoms: _339  and  _340
REMARK  136  A    between atoms: _339  and  _342
REMARK  137  A    between atoms: _342  and  _343
REMARK  138  A    between atoms: _348  and  _350
REMARK  139  A    between atoms: _350  and  _351
REMARK  140  A    between atoms: _350  and  _353
REMARK  141  A    between atoms: _353  and  _354
REMARK  142  A    between atoms: _357  and  _359
REMARK  143  A    between atoms: _359  and  _360
REMARK  144  A    between atoms: _359  and  _362
REMARK  145  A    between atoms: _362  and  _363
REMARK  146  A    between atoms: _368  and  _370
REMARK  147  A    between atoms: _370  and  _371
REMARK  148  A    between atoms: _370  and  _373
REMARK  149  A    between atoms: _373  and  _374
REMARK  150  A    between atoms: _384  and  _386
REMARK  151  A    between atoms: _386  and  _387
REMARK  152  A    between atoms: _386  and  _389
REMARK  153  A    between atoms: _389  and  _390
REMARK  154  A    between atoms: _396  and  _398
REMARK  155  A    between atoms: _398  and  _399
REMARK  156  A    between atoms: _398  and  _401
REMARK  157  A    between atoms: _401  and  _402
REMARK  158  A    between atoms: _405  and  _407
REMARK  159  A    between atoms: _407  and  _408
REMARK  160  A    between atoms: _407  and  _410
REMARK  161  A    between atoms: _410  and  _411
REMARK  162  A    between atoms: _414  and  _416
REMARK  163  A    between atoms: _416  and  _417
REMARK  164  A    between atoms: _416  and  _419
REMARK  165  A    between atoms: _419  and  _420
REMARK  166  A    between atoms: _420  and  _421
REMARK  167  A    between atoms: _421  and  _422
REMARK  168  A    between atoms: _431  and  _433
REMARK  169  A    between atoms: _433  and  _434
REMARK  170  A    between atoms: _433  and  _436
REMARK  171  A    between atoms: _436  and  _437
REMARK  172  A    between atoms: _442  and  _444
REMARK  173  A    between atoms: _444  and  _445
REMARK  174  A    between atoms: _444  and  _447
REMARK  175  A    between atoms: _447  and  _448
REMARK  176  A    between atoms: _448  and  _449
REMARK  177  A    between atoms: _449  and  _450
REMARK  178  A    between atoms: _459  and  _461
REMARK  179  A    between atoms: _461  and  _462
REMARK  180  A    between atoms: _465  and  _467
REMARK  181  A    between atoms: _467  and  _468
REMARK  182  A    between atoms: _470  and  _472
REMARK  183  A    between atoms: _472  and  _473
REMARK  184  A    between atoms: _472  and  _475
REMARK  185  A    between atoms: _475  and  _476
REMARK  186  A    between atoms: _486  and  _488
REMARK  187  A    between atoms: _488  and  _489
REMARK  188  A    between atoms: _488  and  _491
REMARK  189  A    between atoms: _491  and  _492
REMARK  190  A    between atoms: _493  and  _495
REMARK  191  A    between atoms: _495  and  _496
REMARK  192  A    between atoms: _499  and  _501
REMARK  193  A    between atoms: _501  and  _502
REMARK  194  A    between atoms: _501  and  _504
REMARK  195  A    between atoms: _504  and  _505
REMARK  196  A    between atoms: _508  and  _510
REMARK  197  A    between atoms: _510  and  _511
REMARK  198  A    between atoms: _510  and  _513
REMARK  199  A    between atoms: _513  and  _514
REMARK  200  A    between atoms: _519  and  _520
REMARK  201  A    between atoms: _522  and  _524
REMARK  202  A    between atoms: _524  and  _525
REMARK  203  A    between atoms: _524  and  _527
REMARK  204  A    between atoms: _527  and  _528
REMARK  205  A    between atoms: _530  and  _532
REMARK  206  A    between atoms: _532  and  _533
REMARK  207  A    between atoms: _532  and  _535
REMARK  208  A    between atoms: _535  and  _536
REMARK  209  A    between atoms: _542  and  _544
REMARK  210  A    between atoms: _544  and  _545
REMARK  211  A    between atoms: _544  and  _547
REMARK  212  A    between atoms: _547  and  _548
REMARK  213  A    between atoms: _551  and  _553
REMARK  214  A    between atoms: _553  and  _554
REMARK  215  A    between atoms: _553  and  _556
REMARK  216  A    between atoms: _556  and  _557
REMARK  217  A    between atoms: _559  and  _561
REMARK  218  A    between atoms: _561  and  _562
REMARK  219  A    between atoms: _561  and  _564
REMARK  220  A    between atoms: _564  and  _565
REMARK  221  A    between atoms: _570  and  _572
REMARK  222  A    between atoms: _572  and  _573
REMARK  223  A    between atoms: _572  and  _575
REMARK  224  A    between atoms: _575  and  _576
REMARK  225  A    between atoms: _581  and  _583
REMARK  226  A    between atoms: _583  and  _584
REMARK  227  A    between atoms: _583  and  _586
REMARK  228  A    between atoms: _586  and  _587
REMARK  229  A    between atoms: _590  and  _592
REMARK  230  A    between atoms: _592  and  _593
REMARK  231  A    between atoms: _592  and  _595
REMARK  232  A    between atoms: _595  and  _596
REMARK  233  A    between atoms: _601  and  _602
REMARK  234  A    between atoms: _604  and  _606
REMARK  235  A    between atoms: _606  and  _607
REMARK  236  A    between atoms: _606  and  _609
REMARK  237  A    between atoms: _609  and  _610
REMARK  238  A    between atoms: _615  and  _616
REMARK  239  A    between atoms: _618  and  _620
REMARK  240  A    between atoms: _620  and  _621
REMARK  241  A    between atoms: _620  and  _623
REMARK  242  A    between atoms: _626  and  _628
REMARK  243  A    between atoms: _628  and  _629
REMARK  244  A    between atoms: _628  and  _631
REMARK  245  A    between atoms: _631  and  _632
REMARK  246  A    between atoms: _637  and  _639
REMARK  247  A    between atoms: _639  and  _640
REMARK  248  A    between atoms: _643  and  _645
REMARK  249  A    between atoms: _645  and  _646
REMARK  250  A    between atoms: _645  and  _648
REMARK  251  A    between atoms: _648  and  _649
REMARK  252  A    between atoms: _649  and  _650
REMARK  253  A    between atoms: _650  and  _651
REMARK  254  A    between atoms: _660  and  _662
REMARK  255  A    between atoms: _662  and  _663
REMARK  256  A    between atoms: _662  and  _665
REMARK  257  A    between atoms: _665  and  _666
REMARK  258  A    between atoms: _669  and  _671
REMARK  259  A    between atoms: _671  and  _672
REMARK  260  A    between atoms: _671  and  _674
REMARK  261  A    between atoms: _674  and  _675
REMARK  262  A    between atoms: _678  and  _680
REMARK  263  A    between atoms: _680  and  _681
REMARK  264  A    between atoms: _680  and  _683
REMARK  265  A    between atoms: _683  and  _684
REMARK                            x       y       z     vdW  Elec       q    Type
REMARK                         _______ _______ _______ _____ _____    ______ ____
ROOT
ATOM      1  CG  TYR A   1      15.824  15.897  13.511  0.00  0.00    -0.020 A 
ATOM      2  CD2 TYR A   1      14.716  15.453  14.241  0.00  0.00    -0.001 A 
ATOM      3  CE2 TYR A   1      13.943  14.401  13.795  0.00  0.00    +0.036 A 
ATOM      4  CZ  TYR A   1      14.253  13.808  12.574  0.00  0.00    +0.134 A 
ATOM      5  CE1 TYR A   1      15.338  14.214  11.846  0.00  0.00    +0.036 A 
ATOM      6  CD1 TYR A   1      16.128  15.265  12.311  0.00  0.00    -0.001 A 
ENDROOT
BRANCH   4   7
ATOM      7  OH  TYR A   1      13.500  12.756  12.100  0.00  0.00    -0.506 OA
ATOM      8  HH  TYR A   1      14.071  11.951  12.025  0.00  0.00    +0.292 HD
ENDBRANCH   4   7
BRANCH   1   9
ATOM      9  CB  TYR A   1      16.646  17.066  14.039  0.00  0.00    +0.051 C 
BRANCH   9  10
ATOM     10  CA  TYR A   1      17.231  16.751  15.411  0.00  0.00    +0.137 C 
BRANCH  10  11
ATOM     11  N   TYR A   1      17.450  17.959  16.200  0.00  0.00    -0.239 NA
ATOM     12  H   TYR A   1      17.187  18.876  15.785  0.00  0.00    +0.142 HD
ENDBRANCH  10  11
BRANCH  10  13
ATOM     13  C   TYR A   1      18.591  16.063  15.198  0.00  0.00    +0.224 C 
ATOM     14  O   TYR A   1      18.667  14.841  15.184  0.00  0.00    -0.287 OA
ENDBRANCH  10  13
ENDBRANCH   9  10
ENDBRANCH   1   9
TORSDOF 5
REMARK  Name = ../refined-set-2016/1b9j/1b9j_pocket.pdb
REMARK  265 active torsions:
REMARK  status: ('A' for Active; 'I' for Inactive)
REMARK    1  A    between atoms: _1  and  _3
REMARK    2  A    between atoms: _3  and  _4
REMARK    3  A    between atoms: _3  and  _6
REMARK    4  A    between atoms: _6  and  _7
REMARK    5  A    between atoms: _12  and  _14
REMARK    6  A    between atoms: _14  and  _15
REMARK    7  A    between atoms: _17  and  _19
REMARK    8  A    between atoms: _19  and  _20
REMARK    9  A    between atoms: _19  and  _22
REMARK   10  A    between atoms: _22  and  _23
REMARK   11  A    between atoms: _25  and  _27
REMARK   12  A    between atoms: _27  and  _28
REMARK   13  A    between atoms: _27  and  _30
REMARK   14  A    between atoms: _30  and  _31
REMARK   15  A    between atoms: _31  and  _32
REMARK   16  A    between atoms: _37  and  _39
REMARK   17  A    between atoms: _39  and  _40
REMARK   18  A    between atoms: _39  and  _42
REMARK   19  A    between atoms: _42  and  _43
REMARK   20  A    between atoms: _46  and  _48
REMARK   21  A    between atoms: _48  and  _49
REMARK   22  A    between atoms: _48  and  _51
REMARK   23  A    between atoms: _51  and  _52
REMARK   24  A    between atoms: _52  and  _53
REMARK   25  A    between atoms: _56  and  _58
REMARK   26  A    between atoms: _58  and  _59
REMARK   27  A    between atoms: _61  and  _63
REMARK   28  A    between atoms: _63  and  _64
REMARK   29  A    between atoms: _63  and  _66
REMARK   30  A    between atoms: _70  and  _71
REMARK   31  A    between atoms: _76  and  _78
REMARK   32  A    between atoms: _78  and  _79
REMARK   33  A    between atoms: _78  and  _81
REMARK   34  A    between atoms: _81  and  _82
REMARK   35  A    between atoms: _82  and  _83
REMARK   36  A    between atoms: _86  and  _88
REMARK   37  A    between atoms: _88  and  _89
REMARK   38  A    between atoms: _88  and  _91
REMARK   39  A    between atoms: _91  and  _92
REMARK   40  A    between atoms: _94  and  _96
REMARK   41  A    between atoms: _96  and  _97
REMARK   42  A    between atoms: _96  and  _99
REMARK   43  A    between atoms: _99  and  _100
REMARK   44  A    between atoms: _105  and  _107
REMARK   45  A    between atoms: _107  and  _108
REMARK   46  A    between atoms: _107  and  _110
REMARK   47  A    between atoms: _110  and  _111
REMARK   48  A    between atoms: _111  and  _112
REMARK   49  A    between atoms: _112  and  _113
REMARK   50  A    between atoms: _123  and  _124
REMARK   51  A    between atoms: _129  and  _131
REMARK   52  A    between atoms: _131  and  _132
REMARK   53  A    between atoms: _131  and  _134
REMARK   54  A    between atoms: _134  and  _135
REMARK   55  A    between atoms: _140  and  _141
REMARK   56  A    between atoms: _143  and  _145
REMARK   57  A    between atoms: _145  and  _146
REMARK   58  A    between atoms: _145  and  _148
REMARK   59  A    between atoms: _148  and  _149
REMARK   60  A    between atoms: _154  and  _155
REMARK   61  A    between atoms: _157  and  _159
REMARK   62  A    between atoms: _159  and  _160
REMARK   63  A    between atoms: _159  and  _162
REMARK   64  A    between atoms: _165  and  _167
REMARK   65  A    between atoms: _167  and  _168
REMARK   66  A    between atoms: _167  and  _170
REMARK   67  A    between atoms: _170  and  _171
REMARK   68  A    between atoms: _177  and  _178
REMARK   69  A    between atoms: _183  and  _185
REMARK   70  A    between atoms: _185  and  _186
REMARK   71  A    between atoms: _185  and  _188
REMARK   72  A    between atoms: _188  and  _189
REMARK   73  A    between atoms: _191  and  _193
REMARK   74  A    between atoms: _193  and  _194
REMARK   75  A    between atoms: _193  and  _196
REMARK   76  A    between atoms: _196  and  _197
REMARK   77  A    between atoms: _197  and  _198
REMARK   78  A    between atoms: _201  and  _203
REMARK   79  A    between atoms: _203  and  _204
REMARK   80  A    between atoms: _203  and  _206
REMARK   81  A    between atoms: _206  and  _207
REMARK   82  A    between atoms: _212  and  _213
REMARK   83  A    between atoms: _215  and  _217
REMARK   84  A    between atoms: _217  and  _218
REMARK   85  A    between atoms: _217  and  _220
REMARK   86  A    between atoms: _220  and  _221
REMARK   87  A    between atoms: _226  and  _228
REMARK   88  A    between atoms: _228  and  _229
REMARK   89  A    between atoms: _228  and  _231
REMARK   90  A    between atoms: _231  and  _232
REMARK   91  A    between atoms: _237  and  _239
REMARK   92  A    between atoms: _239  and  _240
REMARK   93  A    between atoms: _239  and  _242
REMARK   94  A    between atoms: _242  and  _243
REMARK   95  A    between atoms: _243  and  _244
REMARK   96  A    between atoms: _246  and  _248
REMARK   97  A    between atoms: _248  and  _249
REMARK   98  A    between atoms: _248  and  _251
REMARK   99  A    between atoms: _251  and  _252
REMARK  100  A    between atoms: _257  and  _258
REMARK  101  A    between atoms: _260  and  _262
REMARK  102  A    between atoms: _262  and  _263
REMARK  103  A    between atoms: _262  and  _265
REMARK  104  A    between atoms: _265  and  _266
REMARK  105  A    between atoms: _269  and  _271
REMARK  106  A    between atoms: _271  and  _272
REMARK  107  A    between atoms: _271  and  _274
REMARK  108  A    between atoms: _274  and  _275
REMARK  109  A    between atoms: _275  and  _492
REMARK  110  A    between atoms: _276  and  _278
REMARK  111  A    between atoms: _278  and  _279
REMARK  112  A    between atoms: _278  and  _281
REMARK  113  A    between atoms: _281  and  _282
REMARK  114  A    between atoms: _285  and  _287
REMARK  115  A    between atoms: _287  and  _288
REMARK  116  A    between atoms: _287  and  _290
REMARK  117  A    between atoms: _290  and  _291
REMARK  118  A    between atoms: _296  and  _297
REMARK  119  A    between atoms: _299  and  _301
REMARK  120  A    between atoms: _301  and  _302
REMARK  121  A    between atoms: _301  and  _304
REMARK  122  A    between atoms: _304  and  _305
REMARK  123  A    between atoms: _310  and  _311
REMARK  124  A    between atoms: _313  and  _315
REMARK  125  A    between atoms: _315  and  _316
REMARK  126  A    between atoms: _315  and  _318
REMARK  127  A    between atoms: _318  and  _319
REMARK  128  A    between atoms: _319  and  _320
REMARK  129  A    between atoms: _323  and  _325
REMARK  130  A    between atoms: _325  and  _326
REMARK  131  A    between atoms: _325  and  _328
REMARK  132  A    between atoms: _328  and  _329
REMARK  133  A    between atoms: _334  and  _335
REMARK  134  A    between atoms: _337  and  _339
REMARK  135  A    between atoms: _339  and  _340
REMARK  136  A    between atoms: _339  and  _342
REMARK  137  A    between atoms: _342  and  _343
REMARK  138  A    between atoms: _348  and  _350
REMARK  139  A    between atoms: _350  and  _351
REMARK  140  A    between atoms: _350  and  _353
REMARK  141  A    between atoms: _353  and  _354
REMARK  142  A    between atoms: _357  and  _359
REMARK  143  A    between atoms: _359  and  _360
REMARK  144  A    between atoms: _359  and  _362
REMARK  145  A    between atoms: _362  and  _363
REMARK  146  A    between atoms: _368  and  _370
REMARK  147  A    between atoms: _370  and  _371
REMARK  148  A    between atoms: _370  and  _373
REMARK  149  A    between atoms: _373  and  _374
REMARK  150  A    between atoms: _384  and  _386
REMARK  151  A    between atoms: _386  and  _387
REMARK  152  A    between atoms: _386  and  _389
REMARK  153  A    between atoms: _389  and  _390
REMARK  154  A    between atoms: _396  and  _398
REMARK  155  A    between atoms: _398  and  _399
REMARK  156  A    between atoms: _398  and  _401
REMARK  157  A    between atoms: _401  and  _402
REMARK  158  A    between atoms: _405  and  _407
REMARK  159  A    between atoms: _407  and  _408
REMARK  160  A    between atoms: _407  and  _410
REMARK  161  A    between atoms: _410  and  _411
REMARK  162  A    between atoms: _414  and  _416
REMARK  163  A    between atoms: _416  and  _417
REMARK  164  A    between atoms: _416  and  _419
REMARK  165  A    between atoms: _419  and  _420
REMARK  166  A    between atoms: _420  and  _421
REMARK  167  A    between atoms: _421  and  _422
REMARK  168  A    between atoms: _431  and  _433
REMARK  169  A    between atoms: _433  and  _434
REMARK  170  A    between atoms: _433  and  _436
REMARK  171  A    between atoms: _436  and  _437
REMARK  172  A    between atoms: _442  and  _444
REMARK  173  A    between atoms: _444  and  _445
REMARK  174  A    between atoms: _444  and  _447
REMARK  175  A    between atoms: _447  and  _448
REMARK  176  A    between atoms: _448  and  _449
REMARK  177  A    between atoms: _449  and  _450
REMARK  178  A    between atoms: _459  and  _461
REMARK  179  A    between atoms: _461  and  _462
REMARK  180  A    between atoms: _465  and  _467
REMARK  181  A    between atoms: _467  and  _468
REMARK  182  A    between atoms: _470  and  _472
REMARK  183  A    between atoms: _472  and  _473
REMARK  184  A    between atoms: _472  and  _475
REMARK  185  A    between atoms: _475  and  _476
REMARK  186  A    between atoms: _486  and  _488
REMARK  187  A    between atoms: _488  and  _489
REMARK  188  A    between atoms: _488  and  _491
REMARK  189  A    between atoms: _491  and  _492
REMARK  190  A    between atoms: _493  and  _495
REMARK  191  A    between atoms: _495  and  _496
REMARK  192  A    between atoms: _499  and  _501
REMARK  193  A    between atoms: _501  and  _502
REMARK  194  A    between atoms: _501  and  _504
REMARK  195  A    between atoms: _504  and  _505
REMARK  196  A    between atoms: _508  and  _510
REMARK  197  A    between atoms: _510  and  _511
REMARK  198  A    between atoms: _510  and  _513
REMARK  199  A    between atoms: _513  and  _514
REMARK  200  A    between atoms: _519  and  _520
REMARK  201  A    between atoms: _522  and  _524
REMARK  202  A    between atoms: _524  and  _525
REMARK  203  A    between atoms: _524  and  _527
REMARK  204  A    between atoms: _527  and  _528
REMARK  205  A    between atoms: _530  and  _532
REMARK  206  A    between atoms: _532  and  _533
REMARK  207  A    between atoms: _532  and  _535
REMARK  208  A    between atoms: _535  and  _536
REMARK  209  A    between atoms: _542  and  _544
REMARK  210  A    between atoms: _544  and  _545
REMARK  211  A    between atoms: _544  and  _547
REMARK  212  A    between atoms: _547  and  _548
REMARK  213  A    between atoms: _551  and  _553
REMARK  214  A    between atoms: _553  and  _554
REMARK  215  A    between atoms: _553  and  _556
REMARK  216  A    between atoms: _556  and  _557
REMARK  217  A    between atoms: _559  and  _561
REMARK  218  A    between atoms: _561  and  _562
REMARK  219  A    between atoms: _561  and  _564
REMARK  220  A    between atoms: _564  and  _565
REMARK  221  A    between atoms: _570  and  _572
REMARK  222  A    between atoms: _572  and  _573
REMARK  223  A    between atoms: _572  and  _575
REMARK  224  A    between atoms: _575  and  _576
REMARK  225  A    between atoms: _581  and  _583
REMARK  226  A    between atoms: _583  and  _584
REMARK  227  A    between atoms: _583  and  _586
REMARK  228  A    between atoms: _586  and  _587
REMARK  229  A    between atoms: _590  and  _592
REMARK  230  A    between atoms: _592  and  _593
REMARK  231  A    between atoms: _592  and  _595
REMARK  232  A    between atoms: _595  and  _596
REMARK  233  A    between atoms: _601  and  _602
REMARK  234  A    between atoms: _604  and  _606
REMARK  235  A    between atoms: _606  and  _607
REMARK  236  A    between atoms: _606  and  _609
REMARK  237  A    between atoms: _609  and  _610
REMARK  238  A    between atoms: _615  and  _616
REMARK  239  A    between atoms: _618  and  _620
REMARK  240  A    between atoms: _620  and  _621
REMARK  241  A    between atoms: _620  and  _623
REMARK  242  A    between atoms: _626  and  _628
REMARK  243  A    between atoms: _628  and  _629
REMARK  244  A    between atoms: _628  and  _631
REMARK  245  A    between atoms: _631  and  _632
REMARK  246  A    between atoms: _637  and  _639
REMARK  247  A    between atoms: _639  and  _640
REMARK  248  A    between atoms: _643  and  _645
REMARK  249  A    between atoms: _645  and  _646
REMARK  250  A    between atoms: _645  and  _648
REMARK  251  A    between atoms: _648  and  _649
REMARK  252  A    between atoms: _649  and  _650
REMARK  253  A    between atoms: _650  and  _651
REMARK  254  A    between atoms: _660  and  _662
REMARK  255  A    between atoms: _662  and  _663
REMARK  256  A    between atoms: _662  and  _665
REMARK  257  A    between atoms: _665  and  _666
REMARK  258  A    between atoms: _669  and  _671
REMARK  259  A    between atoms: _671  and  _672
REMARK  260  A    between atoms: _671  and  _674
REMARK  261  A    between atoms: _674  and  _675
REMARK  262  A    between atoms: _678  and  _680
REMARK  263  A    between atoms: _680  and  _681
REMARK  264  A    between atoms: _680  and  _683
REMARK  265  A    between atoms: _683  and  _684
REMARK                            x       y       z     vdW  Elec       q    Type
REMARK                         _______ _______ _______ _____ _____    ______ ____
ROOT
ATOM      1  CA  HIS A   2      12.059  14.655   8.158  0.00  0.00    +0.155 C 
ENDROOT
BRANCH   1   2
ATOM      2  C   HIS A   2      12.553  15.891   7.443  0.00  0.00    +0.244 C 
ATOM      3  N   PRO A   3      11.764  16.958   7.349  0.00  0.00    -0.272 N 
ATOM      4  CD  PRO A   3      10.355  17.083   7.805  0.00  0.00    +0.094 C 
ATOM      5  CG  PRO A   3       9.809  18.162   6.850  0.00  0.00    +0.024 C 
ATOM      6  CB  PRO A   3      10.966  19.110   6.745  0.00  0.00    +0.031 C 
ATOM      7  CA  PRO A   3      12.141  18.136   6.574  0.00  0.00    +0.152 C 
ATOM      8  O   HIS A   2      13.694  15.899   6.954  0.00  0.00    -0.273 OA
BRANCH   7   9
ATOM      9  C   PRO A   3      13.408  18.815   7.022  0.00  0.00    +0.241 C 
ATOM     10  N   SER A   4      13.706  18.756   8.313  0.00  0.00    -0.296 N 
ATOM     11  H   SER A   4      13.101  18.223   8.970  0.00  0.00    +0.150 HD
ATOM     12  O   PRO A   3      14.096  19.383   6.169  0.00  0.00    -0.273 OA
BRANCH  10  13
ATOM     13  CA  SER A   4      14.898  19.451   8.800  0.00  0.00    +0.166 C 
BRANCH  13  14
ATOM     14  C   SER A   4      16.208  18.937   8.200  0.00  0.00    +0.229 C 
ATOM     15  O   SER A   4      17.138  19.735   8.076  0.00  0.00    -0.286 OA
ENDBRANCH  13  14
BRANCH  13  16
ATOM     16  CB  SER A   4      14.899  19.416  10.330  0.00  0.00    +0.165 C 
BRANCH  16  17
ATOM     17  OG  SER A   4      15.186  18.115  10.821  0.00  0.00    -0.380 OA
ATOM     18  H   SER A   4      14.500  17.481  10.493  0.00  0.00    +0.211 HD
ENDBRANCH  16  17
ENDBRANCH  13  16
ENDBRANCH  10  13
ENDBRANCH   7   9
ENDBRANCH   1   2
BRANCH   1  20
ATOM     19  C   VAL A   1      12.091  12.864   6.469  0.00  0.00    +0.238 C 
ATOM     20  N   HIS A   2      12.536  13.415   7.576  0.00  0.00    -0.297 N 
ATOM     21  H   HIS A   2      13.298  12.918   8.080  0.00  0.00    +0.150 HD
ATOM     22  O   VAL A   1      11.332  13.516   5.752  0.00  0.00    -0.274 OA
BRANCH  19  23
ATOM     23  CA  VAL A   1      12.595  11.493   6.008  0.00  0.00    +0.145 C 
BRANCH  23  24
ATOM     24  CB  VAL A   1      11.426  10.479   6.008  0.00  0.00    +0.025 C 
ATOM     25  CG2 VAL A   1      10.787  10.378   7.381  0.00  0.00    +0.002 C 
ATOM     26  CG1 VAL A   1      11.940   9.088   5.616  0.00  0.00    +0.002 C 
ENDBRANCH  23  24
BRANCH  23  27
ATOM     27  N   VAL A   1      13.679  10.982   6.844  0.00  0.00    -0.238 NA
ATOM     28  H   VAL A   1      13.477  10.318   7.619  0.00  0.00    +0.142 HD
ENDBRANCH  23  27
ENDBRANCH  19  23
ENDBRANCH   1  20
BRANCH   1  29
ATOM     29  CB  HIS A   2      12.612  14.678   9.609  0.00  0.00    +0.076 C 
BRANCH  29  30
ATOM     30  CG  HIS A   2      11.931  15.740  10.410  0.00  0.00    +0.082 A 
ATOM     31  CD2 HIS A   2      10.680  15.702  10.930  0.00  0.00    +0.115 A 
ATOM     32  NE2 HIS A   2      10.465  16.904  11.574  0.00  0.00    -0.221 NA
ATOM     33  CE1 HIS A   2      11.562  17.657  11.396  0.00  0.00    +0.199 A 
ATOM     34  ND1 HIS A   2      12.460  16.978  10.702  0.00  0.00    -0.227 NA
ENDBRANCH  29  30
ENDBRANCH   1  29
TORSDOF 12
REMARK  Name = ../refined-set-2016/1b9j/1b9j_pocket.pdb
REMARK  265 active torsions:
REMARK  status: ('A' for Active; 'I' for Inactive)
REMARK    1  A    between atoms: _1  and  _3
REMARK    2  A    between atoms: _3  and  _4
REMARK    3  A    between atoms: _3  and  _6
REMARK    4  A    between atoms: _6  and  _7
REMARK    5  A    between atoms: _12  and  _14
REMARK    6  A    between atoms: _14  and  _15
REMARK    7  A    between atoms: _17  and  _19
REMARK    8  A    between atoms: _19  and  _20
REMARK    9  A    between atoms: _19  and  _22
REMARK   10  A    between atoms: _22  and  _23
REMARK   11  A    between atoms: _25  and  _27
REMARK   12  A    between atoms: _27  and  _28
REMARK   13  A    between atoms: _27  and  _30
REMARK   14  A    between atoms: _30  and  _31
REMARK   15  A    between atoms: _31  and  _32
REMARK   16  A    between atoms: _37  and  _39
REMARK   17  A    between atoms: _39  and  _40
REMARK   18  A    between atoms: _39  and  _42
REMARK   19  A    between atoms: _42  and  _43
REMARK   20  A    between atoms: _46  and  _48
REMARK   21  A    between atoms: _48  and  _49
REMARK   22  A    between atoms: _48  and  _51
REMARK   23  A    between atoms: _51  and  _52
REMARK   24  A    between atoms: _52  and  _53
REMARK   25  A    between atoms: _56  and  _58
REMARK   26  A    between atoms: _58  and  _59
REMARK   27  A    between atoms: _61  and  _63
REMARK   28  A    between atoms: _63  and  _64
REMARK   29  A    between atoms: _63  and  _66
REMARK   30  A    between atoms: _70  and  _71
REMARK   31  A    between atoms: _76  and  _78
REMARK   32  A    between atoms: _78  and  _79
REMARK   33  A    between atoms: _78  and  _81
REMARK   34  A    between atoms: _81  and  _82
REMARK   35  A    between atoms: _82  and  _83
REMARK   36  A    between atoms: _86  and  _88
REMARK   37  A    between atoms: _88  and  _89
REMARK   38  A    between atoms: _88  and  _91
REMARK   39  A    between atoms: _91  and  _92
REMARK   40  A    between atoms: _94  and  _96
REMARK   41  A    between atoms: _96  and  _97
REMARK   42  A    between atoms: _96  and  _99
REMARK   43  A    between atoms: _99  and  _100
REMARK   44  A    between atoms: _105  and  _107
REMARK   45  A    between atoms: _107  and  _108
REMARK   46  A    between atoms: _107  and  _110
REMARK   47  A    between atoms: _110  and  _111
REMARK   48  A    between atoms: _111  and  _112
REMARK   49  A    between atoms: _112  and  _113
REMARK   50  A    between atoms: _123  and  _124
REMARK   51  A    between atoms: _129  and  _131
REMARK   52  A    between atoms: _131  and  _132
REMARK   53  A    between atoms: _131  and  _134
REMARK   54  A    between atoms: _134  and  _135
REMARK   55  A    between atoms: _140  and  _141
REMARK   56  A    between atoms: _143  and  _145
REMARK   57  A    between atoms: _145  and  _146
REMARK   58  A    between atoms: _145  and  _148
REMARK   59  A    between atoms: _148  and  _149
REMARK   60  A    between atoms: _154  and  _155
REMARK   61  A    between atoms: _157  and  _159
REMARK   62  A    between atoms: _159  and  _160
REMARK   63  A    between atoms: _159  and  _162
REMARK   64  A    between atoms: _165  and  _167
REMARK   65  A    between atoms: _167  and  _168
REMARK   66  A    between atoms: _167  and  _170
REMARK   67  A    between atoms: _170  and  _171
REMARK   68  A    between atoms: _177  and  _178
REMARK   69  A    between atoms: _183  and  _185
REMARK   70  A    between atoms: _185  and  _186
REMARK   71  A    between atoms: _185  and  _188
REMARK   72  A    between atoms: _188  and  _189
REMARK   73  A    between atoms: _191  and  _193
REMARK   74  A    between atoms: _193  and  _194
REMARK   75  A    between atoms: _193  and  _196
REMARK   76  A    between atoms: _196  and  _197
REMARK   77  A    between atoms: _197  and  _198
REMARK   78  A    between atoms: _201  and  _203
REMARK   79  A    between atoms: _203  and  _204
REMARK   80  A    between atoms: _203  and  _206
REMARK   81  A    between atoms: _206  and  _207
REMARK   82  A    between atoms: _212  and  _213
REMARK   83  A    between atoms: _215  and  _217
REMARK   84  A    between atoms: _217  and  _218
REMARK   85  A    between atoms: _217  and  _220
REMARK   86  A    between atoms: _220  and  _221
REMARK   87  A    between atoms: _226  and  _228
REMARK   88  A    between atoms: _228  and  _229
REMARK   89  A    between atoms: _228  and  _231
REMARK   90  A    between atoms: _231  and  _232
REMARK   91  A    between atoms: _237  and  _239
REMARK   92  A    between atoms: _239  and  _240
REMARK   93  A    between atoms: _239  and  _242
REMARK   94  A    between atoms: _242  and  _243
REMARK   95  A    between atoms: _243  and  _244
REMARK   96  A    between atoms: _246  and  _248
REMARK   97  A    between atoms: _248  and  _249
REMARK   98  A    between atoms: _248  and  _251
REMARK   99  A    between atoms: _251  and  _252
REMARK  100  A    between atoms: _257  and  _258
REMARK  101  A    between atoms: _260  and  _262
REMARK  102  A    between atoms: _262  and  _263
REMARK  103  A    between atoms: _262  and  _265
REMARK  104  A    between atoms: _265  and  _266
REMARK  105  A    between atoms: _269  and  _271
REMARK  106  A    between atoms: _271  and  _272
REMARK  107  A    between atoms: _271  and  _274
REMARK  108  A    between atoms: _274  and  _275
REMARK  109  A    between atoms: _275  and  _492
REMARK  110  A    between atoms: _276  and  _278
REMARK  111  A    between atoms: _278  and  _279
REMARK  112  A    between atoms: _278  and  _281
REMARK  113  A    between atoms: _281  and  _282
REMARK  114  A    between atoms: _285  and  _287
REMARK  115  A    between atoms: _287  and  _288
REMARK  116  A    between atoms: _287  and  _290
REMARK  117  A    between atoms: _290  and  _291
REMARK  118  A    between atoms: _296  and  _297
REMARK  119  A    between atoms: _299  and  _301
REMARK  120  A    between atoms: _301  and  _302
REMARK  121  A    between atoms: _301  and  _304
REMARK  122  A    between atoms: _304  and  _305
REMARK  123  A    between atoms: _310  and  _311
REMARK  124  A    between atoms: _313  and  _315
REMARK  125  A    between atoms: _315  and  _316
REMARK  126  A    between atoms: _315  and  _318
REMARK  127  A    between atoms: _318  and  _319
REMARK  128  A    between atoms: _319  and  _320
REMARK  129  A    between atoms: _323  and  _325
REMARK  130  A    between atoms: _325  and  _326
REMARK  131  A    between atoms: _325  and  _328
REMARK  132  A    between atoms: _328  and  _329
REMARK  133  A    between atoms: _334  and  _335
REMARK  134  A    between atoms: _337  and  _339
REMARK  135  A    between atoms: _339  and  _340
REMARK  136  A    between atoms: _339  and  _342
REMARK  137  A    between atoms: _342  and  _343
REMARK  138  A    between atoms: _348  and  _350
REMARK  139  A    between atoms: _350  and  _351
REMARK  140  A    between atoms: _350  and  _353
REMARK  141  A    between atoms: _353  and  _354
REMARK  142  A    between atoms: _357  and  _359
REMARK  143  A    between atoms: _359  and  _360
REMARK  144  A    between atoms: _359  and  _362
REMARK  145  A    between atoms: _362  and  _363
REMARK  146  A    between atoms: _368  and  _370
REMARK  147  A    between atoms: _370  and  _371
REMARK  148  A    between atoms: _370  and  _373
REMARK  149  A    between atoms: _373  and  _374
REMARK  150  A    between atoms: _384  and  _386
REMARK  151  A    between atoms: _386  and  _387
REMARK  152  A    between atoms: _386  and  _389
REMARK  153  A    between atoms: _389  and  _390
REMARK  154  A    between atoms: _396  and  _398
REMARK  155  A    between atoms: _398  and  _399
REMARK  156  A    between atoms: _398  and  _401
REMARK  157  A    between atoms: _401  and  _402
REMARK  158  A    between atoms: _405  and  _407
REMARK  159  A    between atoms: _407  and  _408
REMARK  160  A    between atoms: _407  and  _410
REMARK  161  A    between atoms: _410  and  _411
REMARK  162  A    between atoms: _414  and  _416
REMARK  163  A    between atoms: _416  and  _417
REMARK  164  A    between atoms: _416  and  _419
REMARK  165  A    between atoms: _419  and  _420
REMARK  166  A    between atoms: _420  and  _421
REMARK  167  A    between atoms: _421  and  _422
REMARK  168  A    between atoms: _431  and  _433
REMARK  169  A    between atoms: _433  and  _434
REMARK  170  A    between atoms: _433  and  _436
REMARK  171  A    between atoms: _436  and  _437
REMARK  172  A    between atoms: _442  and  _444
REMARK  173  A    between atoms: _444  and  _445
REMARK  174  A    between atoms: _444  and  _447
REMARK  175  A    between atoms: _447  and  _448
REMARK  176  A    between atoms: _448  and  _449
REMARK  177  A    between atoms: _449  and  _450
REMARK  178  A    between atoms: _459  and  _461
REMARK  179  A    between atoms: _461  and  _462
REMARK  180  A    between atoms: _465  and  _467
REMARK  181  A    between atoms: _467  and  _468
REMARK  182  A    between atoms: _470  and  _472
REMARK  183  A    between atoms: _472  and  _473
REMARK  184  A    between atoms: _472  and  _475
REMARK  185  A    between atoms: _475  and  _476
REMARK  186  A    between atoms: _486  and  _488
REMARK  187  A    between atoms: _488  and  _489
REMARK  188  A    between atoms: _488  and  _491
REMARK  189  A    between atoms: _491  and  _492
REMARK  190  A    between atoms: _493  and  _495
REMARK  191  A    between atoms: _495  and  _496
REMARK  192  A    between atoms: _499  and  _501
REMARK  193  A    between atoms: _501  and  _502
REMARK  194  A    between atoms: _501  and  _504
REMARK  195  A    between atoms: _504  and  _505
REMARK  196  A    between atoms: _508  and  _510
REMARK  197  A    between atoms: _510  and  _511
REMARK  198  A    between atoms: _510  and  _513
REMARK  199  A    between atoms: _513  and  _514
REMARK  200  A    between atoms: _519  and  _520
REMARK  201  A    between atoms: _522  and  _524
REMARK  202  A    between atoms: _524  and  _525
REMARK  203  A    between atoms: _524  and  _527
REMARK  204  A    between atoms: _527  and  _528
REMARK  205  A    between atoms: _530  and  _532
REMARK  206  A    between atoms: _532  and  _533
REMARK  207  A    between atoms: _532  and  _535
REMARK  208  A    between atoms: _535  and  _536
REMARK  209  A    between atoms: _542  and  _544
REMARK  210  A    between atoms: _544  and  _545
REMARK  211  A    between atoms: _544  and  _547
REMARK  212  A    between atoms: _547  and  _548
REMARK  213  A    between atoms: _551  and  _553
REMARK  214  A    between atoms: _553  and  _554
REMARK  215  A    between atoms: _553  and  _556
REMARK  216  A    between atoms: _556  and  _557
REMARK  217  A    between atoms: _559  and  _561
REMARK  218  A    between atoms: _561  and  _562
REMARK  219  A    between atoms: _561  and  _564
REMARK  220  A    between atoms: _564  and  _565
REMARK  221  A    between atoms: _570  and  _572
REMARK  222  A    between atoms: _572  and  _573
REMARK  223  A    between atoms: _572  and  _575
REMARK  224  A    between atoms: _575  and  _576
REMARK  225  A    between atoms: _581  and  _583
REMARK  226  A    between atoms: _583  and  _584
REMARK  227  A    between atoms: _583  and  _586
REMARK  228  A    between atoms: _586  and  _587
REMARK  229  A    between atoms: _590  and  _592
REMARK  230  A    between atoms: _592  and  _593
REMARK  231  A    between atoms: _592  and  _595
REMARK  232  A    between atoms: _595  and  _596
REMARK  233  A    between atoms: _601  and  _602
REMARK  234  A    between atoms: _604  and  _606
REMARK  235  A    between atoms: _606  and  _607
REMARK  236  A    between atoms: _606  and  _609
REMARK  237  A    between atoms: _609  and  _610
REMARK  238  A    between atoms: _615  and  _616
REMARK  239  A    between atoms: _618  and  _620
REMARK  240  A    between atoms: _620  and  _621
REMARK  241  A    between atoms: _620  and  _623
REMARK  242  A    between atoms: _626  and  _628
REMARK  243  A    between atoms: _628  and  _629
REMARK  244  A    between atoms: _628  and  _631
REMARK  245  A    between atoms: _631  and  _632
REMARK  246  A    between atoms: _637  and  _639
REMARK  247  A    between atoms: _639  and  _640
REMARK  248  A    between atoms: _643  and  _645
REMARK  249  A    between atoms: _645  and  _646
REMARK  250  A    between atoms: _645  and  _648
REMARK  251  A    between atoms: _648  and  _649
REMARK  252  A    between atoms: _649  and  _650
REMARK  253  A    between atoms: _650  and  _651
REMARK  254  A    between atoms: _660  and  _662
REMARK  255  A    between atoms: _662  and  _663
REMARK  256  A    between atoms: _662  and  _665
REMARK  257  A    between atoms: _665  and  _666
REMARK  258  A    between atoms: _669  and  _671
REMARK  259  A    between atoms: _671  and  _672
REMARK  260  A    between atoms: _671  and  _674
REMARK  261  A    between atoms: _674  and  _675
REMARK  262  A    between atoms: _678  and  _680
REMARK  263  A    between atoms: _680  and  _681
REMARK  264  A    between atoms: _680  and  _683
REMARK  265  A    between atoms: _683  and  _684
REMARK                            x       y       z     vdW  Elec       q    Type
REMARK                         _______ _______ _______ _____ _____    ______ ____
ROOT
ATOM      1  CA  GLU A   1     -12.463  22.842  10.483  0.00  0.00    +0.134 C 
ENDROOT
BRANCH   1   2
ATOM      2  N   GLU A   1     -12.138  24.180  10.960  0.00  0.00    -0.239 NA
ATOM      3  H   GLU A   1     -11.959  24.327  11.974  0.00  0.00    +0.142 HD
ENDBRANCH   1   2
BRANCH   1   4
ATOM      4  C   GLU A   1     -13.876  22.815   9.876  0.00  0.00    +0.224 C 
ATOM      5  O   GLU A   1     -14.093  22.093   8.902  0.00  0.00    -0.287 OA
ENDBRANCH   1   4
BRANCH   1   6
ATOM      6  CB  GLU A   1     -12.281  21.798  11.577  0.00  0.00    +0.037 C 
BRANCH   6   7
ATOM      7  CG  GLU A   1     -10.837  21.699  12.103  0.00  0.00    +0.116 C 
BRANCH   7   8
ATOM      8  CD  GLU A   1     -10.533  22.598  13.261  0.00  0.00    +0.365 C 
ATOM      9  OE2 GLU A   1     -11.437  23.316  13.732  0.00  0.00    -0.246 OA
ATOM     10  OE1 GLU A   1      -9.362  22.618  13.713  0.00  0.00    -0.246 OA
ENDBRANCH   7   8
ENDBRANCH   6   7
ENDBRANCH   1   6
TORSDOF 5
REMARK  Name = ../refined-set-2016/1b9j/1b9j_pocket.pdb
REMARK  265 active torsions:
REMARK  status: ('A' for Active; 'I' for Inactive)
REMARK    1  A    between atoms: _1  and  _3
REMARK    2  A    between atoms: _3  and  _4
REMARK    3  A    between atoms: _3  and  _6
REMARK    4  A    between atoms: _6  and  _7
REMARK    5  A    between atoms: _12  and  _14
REMARK    6  A    between atoms: _14  and  _15
REMARK    7  A    between atoms: _17  and  _19
REMARK    8  A    between atoms: _19  and  _20
REMARK    9  A    between atoms: _19  and  _22
REMARK   10  A    between atoms: _22  and  _23
REMARK   11  A    between atoms: _25  and  _27
REMARK   12  A    between atoms: _27  and  _28
REMARK   13  A    between atoms: _27  and  _30
REMARK   14  A    between atoms: _30  and  _31
REMARK   15  A    between atoms: _31  and  _32
REMARK   16  A    between atoms: _37  and  _39
REMARK   17  A    between atoms: _39  and  _40
REMARK   18  A    between atoms: _39  and  _42
REMARK   19  A    between atoms: _42  and  _43
REMARK   20  A    between atoms: _46  and  _48
REMARK   21  A    between atoms: _48  and  _49
REMARK   22  A    between atoms: _48  and  _51
REMARK   23  A    between atoms: _51  and  _52
REMARK   24  A    between atoms: _52  and  _53
REMARK   25  A    between atoms: _56  and  _58
REMARK   26  A    between atoms: _58  and  _59
REMARK   27  A    between atoms: _61  and  _63
REMARK   28  A    between atoms: _63  and  _64
REMARK   29  A    between atoms: _63  and  _66
REMARK   30  A    between atoms: _70  and  _71
REMARK   31  A    between atoms: _76  and  _78
REMARK   32  A    between atoms: _78  and  _79
REMARK   33  A    between atoms: _78  and  _81
REMARK   34  A    between atoms: _81  and  _82
REMARK   35  A    between atoms: _82  and  _83
REMARK   36  A    between atoms: _86  and  _88
REMARK   37  A    between atoms: _88  and  _89
REMARK   38  A    between atoms: _88  and  _91
REMARK   39  A    between atoms: _91  and  _92
REMARK   40  A    between atoms: _94  and  _96
REMARK   41  A    between atoms: _96  and  _97
REMARK   42  A    between atoms: _96  and  _99
REMARK   43  A    between atoms: _99  and  _100
REMARK   44  A    between atoms: _105  and  _107
REMARK   45  A    between atoms: _107  and  _108
REMARK   46  A    between atoms: _107  and  _110
REMARK   47  A    between atoms: _110  and  _111
REMARK   48  A    between atoms: _111  and  _112
REMARK   49  A    between atoms: _112  and  _113
REMARK   50  A    between atoms: _123  and  _124
REMARK   51  A    between atoms: _129  and  _131
REMARK   52  A    between atoms: _131  and  _132
REMARK   53  A    between atoms: _131  and  _134
REMARK   54  A    between atoms: _134  and  _135
REMARK   55  A    between atoms: _140  and  _141
REMARK   56  A    between atoms: _143  and  _145
REMARK   57  A    between atoms: _145  and  _146
REMARK   58  A    between atoms: _145  and  _148
REMARK   59  A    between atoms: _148  and  _149
REMARK   60  A    between atoms: _154  and  _155
REMARK   61  A    between atoms: _157  and  _159
REMARK   62  A    between atoms: _159  and  _160
REMARK   63  A    between atoms: _159  and  _162
REMARK   64  A    between atoms: _165  and  _167
REMARK   65  A    between atoms: _167  and  _168
REMARK   66  A    between atoms: _167  and  _170
REMARK   67  A    between atoms: _170  and  _171
REMARK   68  A    between atoms: _177  and  _178
REMARK   69  A    between atoms: _183  and  _185
REMARK   70  A    between atoms: _185  and  _186
REMARK   71  A    between atoms: _185  and  _188
REMARK   72  A    between atoms: _188  and  _189
REMARK   73  A    between atoms: _191  and  _193
REMARK   74  A    between atoms: _193  and  _194
REMARK   75  A    between atoms: _193  and  _196
REMARK   76  A    between atoms: _196  and  _197
REMARK   77  A    between atoms: _197  and  _198
REMARK   78  A    between atoms: _201  and  _203
REMARK   79  A    between atoms: _203  and  _204
REMARK   80  A    between atoms: _203  and  _206
REMARK   81  A    between atoms: _206  and  _207
REMARK   82  A    between atoms: _212  and  _213
REMARK   83  A    between atoms: _215  and  _217
REMARK   84  A    between atoms: _217  and  _218
REMARK   85  A    between atoms: _217  and  _220
REMARK   86  A    between atoms: _220  and  _221
REMARK   87  A    between atoms: _226  and  _228
REMARK   88  A    between atoms: _228  and  _229
REMARK   89  A    between atoms: _228  and  _231
REMARK   90  A    between atoms: _231  and  _232
REMARK   91  A    between atoms: _237  and  _239
REMARK   92  A    between atoms: _239  and  _240
REMARK   93  A    between atoms: _239  and  _242
REMARK   94  A    between atoms: _242  and  _243
REMARK   95  A    between atoms: _243  and  _244
REMARK   96  A    between atoms: _246  and  _248
REMARK   97  A    between atoms: _248  and  _249
REMARK   98  A    between atoms: _248  and  _251
REMARK   99  A    between atoms: _251  and  _252
REMARK  100  A    between atoms: _257  and  _258
REMARK  101  A    between atoms: _260  and  _262
REMARK  102  A    between atoms: _262  and  _263
REMARK  103  A    between atoms: _262  and  _265
REMARK  104  A    between atoms: _265  and  _266
REMARK  105  A    between atoms: _269  and  _271
REMARK  106  A    between atoms: _271  and  _272
REMARK  107  A    between atoms: _271  and  _274
REMARK  108  A    between atoms: _274  and  _275
REMARK  109  A    between atoms: _275  and  _492
REMARK  110  A    between atoms: _276  and  _278
REMARK  111  A    between atoms: _278  and  _279
REMARK  112  A    between atoms: _278  and  _281
REMARK  113  A    between atoms: _281  and  _282
REMARK  114  A    between atoms: _285  and  _287
REMARK  115  A    between atoms: _287  and  _288
REMARK  116  A    between atoms: _287  and  _290
REMARK  117  A    between atoms: _290  and  _291
REMARK  118  A    between atoms: _296  and  _297
REMARK  119  A    between atoms: _299  and  _301
REMARK  120  A    between atoms: _301  and  _302
REMARK  121  A    between atoms: _301  and  _304
REMARK  122  A    between atoms: _304  and  _305
REMARK  123  A    between atoms: _310  and  _311
REMARK  124  A    between atoms: _313  and  _315
REMARK  125  A    between atoms: _315  and  _316
REMARK  126  A    between atoms: _315  and  _318
REMARK  127  A    between atoms: _318  and  _319
REMARK  128  A    between atoms: _319  and  _320
REMARK  129  A    between atoms: _323  and  _325
REMARK  130  A    between atoms: _325  and  _326
REMARK  131  A    between atoms: _325  and  _328
REMARK  132  A    between atoms: _328  and  _329
REMARK  133  A    between atoms: _334  and  _335
REMARK  134  A    between atoms: _337  and  _339
REMARK  135  A    between atoms: _339  and  _340
REMARK  136  A    between atoms: _339  and  _342
REMARK  137  A    between atoms: _342  and  _343
REMARK  138  A    between atoms: _348  and  _350
REMARK  139  A    between atoms: _350  and  _351
REMARK  140  A    between atoms: _350  and  _353
REMARK  141  A    between atoms: _353  and  _354
REMARK  142  A    between atoms: _357  and  _359
REMARK  143  A    between atoms: _359  and  _360
REMARK  144  A    between atoms: _359  and  _362
REMARK  145  A    between atoms: _362  and  _363
REMARK  146  A    between atoms: _368  and  _370
REMARK  147  A    between atoms: _370  and  _371
REMARK  148  A    between atoms: _370  and  _373
REMARK  149  A    between atoms: _373  and  _374
REMARK  150  A    between atoms: _384  and  _386
REMARK  151  A    between atoms: _386  and  _387
REMARK  152  A    between atoms: _386  and  _389
REMARK  153  A    between atoms: _389  and  _390
REMARK  154  A    between atoms: _396  and  _398
REMARK  155  A    between atoms: _398  and  _399
REMARK  156  A    between atoms: _398  and  _401
REMARK  157  A    between atoms: _401  and  _402
REMARK  158  A    between atoms: _405  and  _407
REMARK  159  A    between atoms: _407  and  _408
REMARK  160  A    between atoms: _407  and  _410
REMARK  161  A    between atoms: _410  and  _411
REMARK  162  A    between atoms: _414  and  _416
REMARK  163  A    between atoms: _416  and  _417
REMARK  164  A    between atoms: _416  and  _419
REMARK  165  A    between atoms: _419  and  _420
REMARK  166  A    between atoms: _420  and  _421
REMARK  167  A    between atoms: _421  and  _422
REMARK  168  A    between atoms: _431  and  _433
REMARK  169  A    between atoms: _433  and  _434
REMARK  170  A    between atoms: _433  and  _436
REMARK  171  A    between atoms: _436  and  _437
REMARK  172  A    between atoms: _442  and  _444
REMARK  173  A    between atoms: _444  and  _445
REMARK  174  A    between atoms: _444  and  _447
REMARK  175  A    between atoms: _447  and  _448
REMARK  176  A    between atoms: _448  and  _449
REMARK  177  A    between atoms: _449  and  _450
REMARK  178  A    between atoms: _459  and  _461
REMARK  179  A    between atoms: _461  and  _462
REMARK  180  A    between atoms: _465  and  _467
REMARK  181  A    between atoms: _467  and  _468
REMARK  182  A    between atoms: _470  and  _472
REMARK  183  A    between atoms: _472  and  _473
REMARK  184  A    between atoms: _472  and  _475
REMARK  185  A    between atoms: _475  and  _476
REMARK  186  A    between atoms: _486  and  _488
REMARK  187  A    between atoms: _488  and  _489
REMARK  188  A    between atoms: _488  and  _491
REMARK  189  A    between atoms: _491  and  _492
REMARK  190  A    between atoms: _493  and  _495
REMARK  191  A    between atoms: _495  and  _496
REMARK  192  A    between atoms: _499  and  _501
REMARK  193  A    between atoms: _501  and  _502
REMARK  194  A    between atoms: _501  and  _504
REMARK  195  A    between atoms: _504  and  _505
REMARK  196  A    between atoms: _508  and  _510
REMARK  197  A    between atoms: _510  and  _511
REMARK  198  A    between atoms: _510  and  _513
REMARK  199  A    between atoms: _513  and  _514
REMARK  200  A    between atoms: _519  and  _520
REMARK  201  A    between atoms: _522  and  _524
REMARK  202  A    between atoms: _524  and  _525
REMARK  203  A    between atoms: _524  and  _527
REMARK  204  A    between atoms: _527  and  _528
REMARK  205  A    between atoms: _530  and  _532
REMARK  206  A    between atoms: _532  and  _533
REMARK  207  A    between atoms: _532  and  _535
REMARK  208  A    between atoms: _535  and  _536
REMARK  209  A    between atoms: _542  and  _544
REMARK  210  A    between atoms: _544  and  _545
REMARK  211  A    between atoms: _544  and  _547
REMARK  212  A    between atoms: _547  and  _548
REMARK  213  A    between atoms: _551  and  _553
REMARK  214  A    between atoms: _553  and  _554
REMARK  215  A    between atoms: _553  and  _556
REMARK  216  A    between atoms: _556  and  _557
REMARK  217  A    between atoms: _559  and  _561
REMARK  218  A    between atoms: _561  and  _562
REMARK  219  A    between atoms: _561  and  _564
REMARK  220  A    between atoms: _564  and  _565
REMARK  221  A    between atoms: _570  and  _572
REMARK  222  A    between atoms: _572  and  _573
REMARK  223  A    between atoms: _572  and  _575
REMARK  224  A    between atoms: _575  and  _576
REMARK  225  A    between atoms: _581  and  _583
REMARK  226  A    between atoms: _583  and  _584
REMARK  227  A    between atoms: _583  and  _586
REMARK  228  A    between atoms: _586  and  _587
REMARK  229  A    between atoms: _590  and  _592
REMARK  230  A    between atoms: _592  and  _593
REMARK  231  A    between atoms: _592  and  _595
REMARK  232  A    between atoms: _595  and  _596
REMARK  233  A    between atoms: _601  and  _602
REMARK  234  A    between atoms: _604  and  _606
REMARK  235  A    between atoms: _606  and  _607
REMARK  236  A    between atoms: _606  and  _609
REMARK  237  A    between atoms: _609  and  _610
REMARK  238  A    between atoms: _615  and  _616
REMARK  239  A    between atoms: _618  and  _620
REMARK  240  A    between atoms: _620  and  _621
REMARK  241  A    between atoms: _620  and  _623
REMARK  242  A    between atoms: _626  and  _628
REMARK  243  A    between atoms: _628  and  _629
REMARK  244  A    between atoms: _628  and  _631
REMARK  245  A    between atoms: _631  and  _632
REMARK  246  A    between atoms: _637  and  _639
REMARK  247  A    between atoms: _639  and  _640
REMARK  248  A    between atoms: _643  and  _645
REMARK  249  A    between atoms: _645  and  _646
REMARK  250  A    between atoms: _645  and  _648
REMARK  251  A    between atoms: _648  and  _649
REMARK  252  A    between atoms: _649  and  _650
REMARK  253  A    between atoms: _650  and  _651
REMARK  254  A    between atoms: _660  and  _662
REMARK  255  A    between atoms: _662  and  _663
REMARK  256  A    between atoms: _662  and  _665
REMARK  257  A    between atoms: _665  and  _666
REMARK  258  A    between atoms: _669  and  _671
REMARK  259  A    between atoms: _671  and  _672
REMARK  260  A    between atoms: _671  and  _674
REMARK  261  A    between atoms: _674  and  _675
REMARK  262  A    between atoms: _678  and  _680
REMARK  263  A    between atoms: _680  and  _681
REMARK  264  A    between atoms: _680  and  _683
REMARK  265  A    between atoms: _683  and  _684
REMARK                            x       y       z     vdW  Elec       q    Type
REMARK                         _______ _______ _______ _____ _____    ______ ____
ROOT
ATOM      1  CA  ASN A   2      -6.895  16.200   9.378  0.00  0.00    +0.158 C 
ENDROOT
BRANCH   1   3
ATOM      2  C   TYR A   1      -7.378  17.879   7.682  0.00  0.00    +0.239 C 
ATOM      3  N   ASN A   2      -6.511  17.281   8.487  0.00  0.00    -0.297 N 
ATOM      4  H   ASN A   2      -5.520  17.597   8.480  0.00  0.00    +0.150 HD
ATOM      5  O   TYR A   1      -8.538  17.470   7.583  0.00  0.00    -0.274 OA
BRANCH   2   6
ATOM      6  CA  TYR A   1      -6.877  18.954   6.709  0.00  0.00    +0.149 C 
BRANCH   6   7
ATOM      7  N   TYR A   1      -7.950  19.068   5.728  0.00  0.00    -0.238 NA
ATOM      8  H   TYR A   1      -8.543  19.923   5.736  0.00  0.00    +0.142 HD
ENDBRANCH   6   7
BRANCH   6   9
ATOM      9  CB  TYR A   1      -6.617  20.261   7.432  0.00  0.00    +0.053 C 
BRANCH   9  10
ATOM     10  CG  TYR A   1      -5.440  20.189   8.399  0.00  0.00    -0.020 A 
ATOM     11  CD2 TYR A   1      -5.568  20.430   9.750  0.00  0.00    -0.001 A 
ATOM     12  CE2 TYR A   1      -4.452  20.352  10.574  0.00  0.00    +0.036 A 
ATOM     13  CZ  TYR A   1      -3.234  20.021  10.043  0.00  0.00    +0.134 A 
ATOM     14  CE1 TYR A   1      -3.070  19.793   8.688  0.00  0.00    +0.036 A 
ATOM     15  CD1 TYR A   1      -4.186  19.889   7.874  0.00  0.00    -0.001 A 
BRANCH  13  16
ATOM     16  OH  TYR A   1      -2.109  19.926  10.842  0.00  0.00    -0.506 OA
ATOM     17  HH  TYR A   1      -1.941  20.799  11.278  0.00  0.00    +0.292 HD
ENDBRANCH  13  16
ENDBRANCH   9  10
ENDBRANCH   6   9
ENDBRANCH   2   6
ENDBRANCH   1   3
BRANCH   1  18
ATOM     18  C   ASN A   2      -7.004  16.674  10.816  0.00  0.00    +0.241 C 
ATOM     19  O   ASN A   2      -6.299  16.261  11.725  0.00  0.00    -0.273 OA
ATOM     20  N   ASN A   3      -7.919  17.589  11.009  0.00  0.00    -0.297 N 
ATOM     21  H   ASN A   3      -8.353  17.982  10.150  0.00  0.00    +0.150 HD
BRANCH  20  22
ATOM     22  CA  ASN A   3      -8.411  18.132  12.274  0.00  0.00    +0.158 C 
BRANCH  22  23
ATOM     23  C   ASN A   3      -9.916  18.248  11.948  0.00  0.00    +0.241 C 
ATOM     24  N   MET A   4     -10.793  17.541  12.651  0.00  0.00    -0.298 N 
ATOM     25  H   MET A   4     -10.464  16.967  13.453  0.00  0.00    +0.150 HD
ATOM     26  O   ASN A   3     -10.257  18.783  10.849  0.00  0.00    -0.273 OA
BRANCH  24  27
ATOM     27  CA  MET A   4     -12.224  17.560  12.309  0.00  0.00    +0.138 C 
BRANCH  27  28
ATOM     28  C   MET A   4     -13.096  18.352  13.289  0.00  0.00    +0.227 C 
ATOM     29  O   MET A   4     -12.887  18.254  14.489  0.00  0.00    -0.286 OA
ENDBRANCH  27  28
BRANCH  27  30
ATOM     30  CB  MET A   4     -12.710  16.105  12.258  0.00  0.00    +0.039 C 
BRANCH  30  31
ATOM     31  CG  MET A   4     -12.242  15.283  11.090  0.00  0.00    +0.060 C 
BRANCH  31  32
ATOM     32  SD  MET A   4     -13.152  15.511   9.551  0.00  0.00    -0.139 S 
ATOM     33  CE  MET A   4     -12.329  16.896   8.805  0.00  0.00    +0.069 C 
ENDBRANCH  31  32
ENDBRANCH  30  31
ENDBRANCH  27  30
ENDBRANCH  24  27
ENDBRANCH  22  23
BRANCH  22  34
ATOM     34  CB  ASN A   3      -7.700  19.436  12.565  0.00  0.00    +0.114 C 
BRANCH  34  35
ATOM     35  CG  ASN A   3      -6.961  19.680  13.834  0.00  0.00    +0.222 C 
ATOM     36  OD1 ASN A   3      -6.200  18.943  14.442  0.00  0.00    -0.275 OA
ATOM     37  ND2 ASN A   3      -7.164  20.893  14.394  0.00  0.00    -0.329 N 
ATOM     38 HD21 ASN A   3      -6.685  21.142  15.283  0.00  0.00    +0.145 HD
ATOM     39 HD22 ASN A   3      -7.799  21.577  13.936  0.00  0.00    +0.145 HD
ENDBRANCH  34  35
ENDBRANCH  22  34
ENDBRANCH  20  22
ENDBRANCH   1  18
BRANCH   1  40
ATOM     40  CB  ASN A   2      -5.981  14.987   9.262  0.00  0.00    +0.114 C 
BRANCH  40  41
ATOM     41  CG  ASN A   2      -4.505  15.269   9.317  0.00  0.00    +0.222 C 
ATOM     42  OD1 ASN A   2      -4.114  16.423   9.434  0.00  0.00    -0.275 OA
ATOM     43  ND2 ASN A   2      -3.758  14.174   9.223  0.00  0.00    -0.329 N 
ATOM     44 HD21 ASN A   2      -2.721  14.248   9.246  0.00  0.00    +0.145 HD
ATOM     45 HD22 ASN A   2      -4.210  13.243   9.126  0.00  0.00    +0.145 HD
ENDBRANCH  40  41
ENDBRANCH   1  40
TORSDOF 18
REMARK  Name = ../refined-set-2016/1b9j/1b9j_pocket.pdb
REMARK  265 active torsions:
REMARK  status: ('A' for Active; 'I' for Inactive)
REMARK    1  A    between atoms: _1  and  _3
REMARK    2  A    between atoms: _3  and  _4
REMARK    3  A    between atoms: _3  and  _6
REMARK    4  A    between atoms: _6  and  _7
REMARK    5  A    between atoms: _12  and  _14
REMARK    6  A    between atoms: _14  and  _15
REMARK    7  A    between atoms: _17  and  _19
REMARK    8  A    between atoms: _19  and  _20
REMARK    9  A    between atoms: _19  and  _22
REMARK   10  A    between atoms: _22  and  _23
REMARK   11  A    between atoms: _25  and  _27
REMARK   12  A    between atoms: _27  and  _28
REMARK   13  A    between atoms: _27  and  _30
REMARK   14  A    between atoms: _30  and  _31
REMARK   15  A    between atoms: _31  and  _32
REMARK   16  A    between atoms: _37  and  _39
REMARK   17  A    between atoms: _39  and  _40
REMARK   18  A    between atoms: _39  and  _42
REMARK   19  A    between atoms: _42  and  _43
REMARK   20  A    between atoms: _46  and  _48
REMARK   21  A    between atoms: _48  and  _49
REMARK   22  A    between atoms: _48  and  _51
REMARK   23  A    between atoms: _51  and  _52
REMARK   24  A    between atoms: _52  and  _53
REMARK   25  A    between atoms: _56  and  _58
REMARK   26  A    between atoms: _58  and  _59
REMARK   27  A    between atoms: _61  and  _63
REMARK   28  A    between atoms: _63  and  _64
REMARK   29  A    between atoms: _63  and  _66
REMARK   30  A    between atoms: _70  and  _71
REMARK   31  A    between atoms: _76  and  _78
REMARK   32  A    between atoms: _78  and  _79
REMARK   33  A    between atoms: _78  and  _81
REMARK   34  A    between atoms: _81  and  _82
REMARK   35  A    between atoms: _82  and  _83
REMARK   36  A    between atoms: _86  and  _88
REMARK   37  A    between atoms: _88  and  _89
REMARK   38  A    between atoms: _88  and  _91
REMARK   39  A    between atoms: _91  and  _92
REMARK   40  A    between atoms: _94  and  _96
REMARK   41  A    between atoms: _96  and  _97
REMARK   42  A    between atoms: _96  and  _99
REMARK   43  A    between atoms: _99  and  _100
REMARK   44  A    between atoms: _105  and  _107
REMARK   45  A    between atoms: _107  and  _108
REMARK   46  A    between atoms: _107  and  _110
REMARK   47  A    between atoms: _110  and  _111
REMARK   48  A    between atoms: _111  and  _112
REMARK   49  A    between atoms: _112  and  _113
REMARK   50  A    between atoms: _123  and  _124
REMARK   51  A    between atoms: _129  and  _131
REMARK   52  A    between atoms: _131  and  _132
REMARK   53  A    between atoms: _131  and  _134
REMARK   54  A    between atoms: _134  and  _135
REMARK   55  A    between atoms: _140  and  _141
REMARK   56  A    between atoms: _143  and  _145
REMARK   57  A    between atoms: _145  and  _146
REMARK   58  A    between atoms: _145  and  _148
REMARK   59  A    between atoms: _148  and  _149
REMARK   60  A    between atoms: _154  and  _155
REMARK   61  A    between atoms: _157  and  _159
REMARK   62  A    between atoms: _159  and  _160
REMARK   63  A    between atoms: _159  and  _162
REMARK   64  A    between atoms: _165  and  _167
REMARK   65  A    between atoms: _167  and  _168
REMARK   66  A    between atoms: _167  and  _170
REMARK   67  A    between atoms: _170  and  _171
REMARK   68  A    between atoms: _177  and  _178
REMARK   69  A    between atoms: _183  and  _185
REMARK   70  A    between atoms: _185  and  _186
REMARK   71  A    between atoms: _185  and  _188
REMARK   72  A    between atoms: _188  and  _189
REMARK   73  A    between atoms: _191  and  _193
REMARK   74  A    between atoms: _193  and  _194
REMARK   75  A    between atoms: _193  and  _196
REMARK   76  A    between atoms: _196  and  _197
REMARK   77  A    between atoms: _197  and  _198
REMARK   78  A    between atoms: _201  and  _203
REMARK   79  A    between atoms: _203  and  _204
REMARK   80  A    between atoms: _203  and  _206
REMARK   81  A    between atoms: _206  and  _207
REMARK   82  A    between atoms: _212  and  _213
REMARK   83  A    between atoms: _215  and  _217
REMARK   84  A    between atoms: _217  and  _218
REMARK   85  A    between atoms: _217  and  _220
REMARK   86  A    between atoms: _220  and  _221
REMARK   87  A    between atoms: _226  and  _228
REMARK   88  A    between atoms: _228  and  _229
REMARK   89  A    between atoms: _228  and  _231
REMARK   90  A    between atoms: _231  and  _232
REMARK   91  A    between atoms: _237  and  _239
REMARK   92  A    between atoms: _239  and  _240
REMARK   93  A    between atoms: _239  and  _242
REMARK   94  A    between atoms: _242  and  _243
REMARK   95  A    between atoms: _243  and  _244
REMARK   96  A    between atoms: _246  and  _248
REMARK   97  A    between atoms: _248  and  _249
REMARK   98  A    between atoms: _248  and  _251
REMARK   99  A    between atoms: _251  and  _252
REMARK  100  A    between atoms: _257  and  _258
REMARK  101  A    between atoms: _260  and  _262
REMARK  102  A    between atoms: _262  and  _263
REMARK  103  A    between atoms: _262  and  _265
REMARK  104  A    between atoms: _265  and  _266
REMARK  105  A    between atoms: _269  and  _271
REMARK  106  A    between atoms: _271  and  _272
REMARK  107  A    between atoms: _271  and  _274
REMARK  108  A    between atoms: _274  and  _275
REMARK  109  A    between atoms: _275  and  _492
REMARK  110  A    between atoms: _276  and  _278
REMARK  111  A    between atoms: _278  and  _279
REMARK  112  A    between atoms: _278  and  _281
REMARK  113  A    between atoms: _281  and  _282
REMARK  114  A    between atoms: _285  and  _287
REMARK  115  A    between atoms: _287  and  _288
REMARK  116  A    between atoms: _287  and  _290
REMARK  117  A    between atoms: _290  and  _291
REMARK  118  A    between atoms: _296  and  _297
REMARK  119  A    between atoms: _299  and  _301
REMARK  120  A    between atoms: _301  and  _302
REMARK  121  A    between atoms: _301  and  _304
REMARK  122  A    between atoms: _304  and  _305
REMARK  123  A    between atoms: _310  and  _311
REMARK  124  A    between atoms: _313  and  _315
REMARK  125  A    between atoms: _315  and  _316
REMARK  126  A    between atoms: _315  and  _318
REMARK  127  A    between atoms: _318  and  _319
REMARK  128  A    between atoms: _319  and  _320
REMARK  129  A    between atoms: _323  and  _325
REMARK  130  A    between atoms: _325  and  _326
REMARK  131  A    between atoms: _325  and  _328
REMARK  132  A    between atoms: _328  and  _329
REMARK  133  A    between atoms: _334  and  _335
REMARK  134  A    between atoms: _337  and  _339
REMARK  135  A    between atoms: _339  and  _340
REMARK  136  A    between atoms: _339  and  _342
REMARK  137  A    between atoms: _342  and  _343
REMARK  138  A    between atoms: _348  and  _350
REMARK  139  A    between atoms: _350  and  _351
REMARK  140  A    between atoms: _350  and  _353
REMARK  141  A    between atoms: _353  and  _354
REMARK  142  A    between atoms: _357  and  _359
REMARK  143  A    between atoms: _359  and  _360
REMARK  144  A    between atoms: _359  and  _362
REMARK  145  A    between atoms: _362  and  _363
REMARK  146  A    between atoms: _368  and  _370
REMARK  147  A    between atoms: _370  and  _371
REMARK  148  A    between atoms: _370  and  _373
REMARK  149  A    between atoms: _373  and  _374
REMARK  150  A    between atoms: _384  and  _386
REMARK  151  A    between atoms: _386  and  _387
REMARK  152  A    between atoms: _386  and  _389
REMARK  153  A    between atoms: _389  and  _390
REMARK  154  A    between atoms: _396  and  _398
REMARK  155  A    between atoms: _398  and  _399
REMARK  156  A    between atoms: _398  and  _401
REMARK  157  A    between atoms: _401  and  _402
REMARK  158  A    between atoms: _405  and  _407
REMARK  159  A    between atoms: _407  and  _408
REMARK  160  A    between atoms: _407  and  _410
REMARK  161  A    between atoms: _410  and  _411
REMARK  162  A    between atoms: _414  and  _416
REMARK  163  A    between atoms: _416  and  _417
REMARK  164  A    between atoms: _416  and  _419
REMARK  165  A    between atoms: _419  and  _420
REMARK  166  A    between atoms: _420  and  _421
REMARK  167  A    between atoms: _421  and  _422
REMARK  168  A    between atoms: _431  and  _433
REMARK  169  A    between atoms: _433  and  _434
REMARK  170  A    between atoms: _433  and  _436
REMARK  171  A    between atoms: _436  and  _437
REMARK  172  A    between atoms: _442  and  _444
REMARK  173  A    between atoms: _444  and  _445
REMARK  174  A    between atoms: _444  and  _447
REMARK  175  A    between atoms: _447  and  _448
REMARK  176  A    between atoms: _448  and  _449
REMARK  177  A    between atoms: _449  and  _450
REMARK  178  A    between atoms: _459  and  _461
REMARK  179  A    between atoms: _461  and  _462
REMARK  180  A    between atoms: _465  and  _467
REMARK  181  A    between atoms: _467  and  _468
REMARK  182  A    between atoms: _470  and  _472
REMARK  183  A    between atoms: _472  and  _473
REMARK  184  A    between atoms: _472  and  _475
REMARK  185  A    between atoms: _475  and  _476
REMARK  186  A    between atoms: _486  and  _488
REMARK  187  A    between atoms: _488  and  _489
REMARK  188  A    between atoms: _488  and  _491
REMARK  189  A    between atoms: _491  and  _492
REMARK  190  A    between atoms: _493  and  _495
REMARK  191  A    between atoms: _495  and  _496
REMARK  192  A    between atoms: _499  and  _501
REMARK  193  A    between atoms: _501  and  _502
REMARK  194  A    between atoms: _501  and  _504
REMARK  195  A    between atoms: _504  and  _505
REMARK  196  A    between atoms: _508  and  _510
REMARK  197  A    between atoms: _510  and  _511
REMARK  198  A    between atoms: _510  and  _513
REMARK  199  A    between atoms: _513  and  _514
REMARK  200  A    between atoms: _519  and  _520
REMARK  201  A    between atoms: _522  and  _524
REMARK  202  A    between atoms: _524  and  _525
REMARK  203  A    between atoms: _524  and  _527
REMARK  204  A    between atoms: _527  and  _528
REMARK  205  A    between atoms: _530  and  _532
REMARK  206  A    between atoms: _532  and  _533
REMARK  207  A    between atoms: _532  and  _535
REMARK  208  A    between atoms: _535  and  _536
REMARK  209  A    between atoms: _542  and  _544
REMARK  210  A    between atoms: _544  and  _545
REMARK  211  A    between atoms: _544  and  _547
REMARK  212  A    between atoms: _547  and  _548
REMARK  213  A    between atoms: _551  and  _553
REMARK  214  A    between atoms: _553  and  _554
REMARK  215  A    between atoms: _553  and  _556
REMARK  216  A    between atoms: _556  and  _557
REMARK  217  A    between atoms: _559  and  _561
REMARK  218  A    between atoms: _561  and  _562
REMARK  219  A    between atoms: _561  and  _564
REMARK  220  A    between atoms: _564  and  _565
REMARK  221  A    between atoms: _570  and  _572
REMARK  222  A    between atoms: _572  and  _573
REMARK  223  A    between atoms: _572  and  _575
REMARK  224  A    between atoms: _575  and  _576
REMARK  225  A    between atoms: _581  and  _583
REMARK  226  A    between atoms: _583  and  _584
REMARK  227  A    between atoms: _583  and  _586
REMARK  228  A    between atoms: _586  and  _587
REMARK  229  A    between atoms: _590  and  _592
REMARK  230  A    between atoms: _592  and  _593
REMARK  231  A    between atoms: _592  and  _595
REMARK  232  A    between atoms: _595  and  _596
REMARK  233  A    between atoms: _601  and  _602
REMARK  234  A    between atoms: _604  and  _606
REMARK  235  A    between atoms: _606  and  _607
REMARK  236  A    between atoms: _606  and  _609
REMARK  237  A    between atoms: _609  and  _610
REMARK  238  A    between atoms: _615  and  _616
REMARK  239  A    between atoms: _618  and  _620
REMARK  240  A    between atoms: _620  and  _621
REMARK  241  A    between atoms: _620  and  _623
REMARK  242  A    between atoms: _626  and  _628
REMARK  243  A    between atoms: _628  and  _629
REMARK  244  A    between atoms: _628  and  _631
REMARK  245  A    between atoms: _631  and  _632
REMARK  246  A    between atoms: _637  and  _639
REMARK  247  A    between atoms: _639  and  _640
REMARK  248  A    between atoms: _643  and  _645
REMARK  249  A    between atoms: _645  and  _646
REMARK  250  A    between atoms: _645  and  _648
REMARK  251  A    between atoms: _648  and  _649
REMARK  252  A    between atoms: _649  and  _650
REMARK  253  A    between atoms: _650  and  _651
REMARK  254  A    between atoms: _660  and  _662
REMARK  255  A    between atoms: _662  and  _663
REMARK  256  A    between atoms: _662  and  _665
REMARK  257  A    between atoms: _665  and  _666
REMARK  258  A    between atoms: _669  and  _671
REMARK  259  A    between atoms: _671  and  _672
REMARK  260  A    between atoms: _671  and  _674
REMARK  261  A    between atoms: _674  and  _675
REMARK  262  A    between atoms: _678  and  _680
REMARK  263  A    between atoms: _680  and  _681
REMARK  264  A    between atoms: _680  and  _683
REMARK  265  A    between atoms: _683  and  _684
REMARK                            x       y       z     vdW  Elec       q    Type
REMARK                         _______ _______ _______ _____ _____    ______ ____
ROOT
ATOM      1  CA  CYS A   5       3.248  13.892  16.019  0.00  0.00    +0.160 C 
ENDROOT
BRANCH   1   2
ATOM      2  C   CYS A   5       4.654  13.346  15.758  0.00  0.00    +0.242 C 
ATOM      3  N   ALA A   6       4.819  12.038  15.747  0.00  0.00    -0.297 N 
ATOM      4  H   ALA A   6       3.989  11.430  15.898  0.00  0.00    +0.150 HD
ATOM      5  O   CYS A   5       5.573  14.178  15.572  0.00  0.00    -0.273 OA
BRANCH   3   6
ATOM      6  CA  ALA A   6       6.117  11.409  15.532  0.00  0.00    +0.149 C 
ATOM      7  CB  ALA A   6       5.956   9.879  15.455  0.00  0.00    +0.031 C 
BRANCH   6   8
ATOM      8  C   ALA A   6       6.764  11.864  14.218  0.00  0.00    +0.241 C 
ATOM      9  N   ASP A   7       8.086  12.032  14.270  0.00  0.00    -0.297 N 
ATOM     10  H   ASP A   7       8.577  11.947  15.183  0.00  0.00    +0.150 HD
ATOM     11  O   ALA A   6       6.063  12.112  13.237  0.00  0.00    -0.273 OA
BRANCH   9  12
ATOM     12  CA  ASP A   7       8.859  12.335  13.058  0.00  0.00    +0.160 C 
BRANCH  12  13
ATOM     13  C   ASP A   7       9.430  11.038  12.473  0.00  0.00    +0.241 C 
ATOM     14  N   TYR A   8       9.645  10.082  13.359  0.00  0.00    -0.298 N 
ATOM     15  H   TYR A   8       9.511  10.289  14.369  0.00  0.00    +0.150 HD
ATOM     16  O   ASP A   7       9.740  10.936  11.274  0.00  0.00    -0.273 OA
BRANCH  14  17
ATOM     17  CA  TYR A   8      10.069   8.734  12.955  0.00  0.00    +0.141 C 
BRANCH  17  18
ATOM     18  C   TYR A   8       9.383   7.827  13.958  0.00  0.00    +0.227 C 
ATOM     19  O   TYR A   8       9.108   8.216  15.095  0.00  0.00    -0.286 OA
ENDBRANCH  17  18
BRANCH  17  20
ATOM     20  CB  TYR A   8      11.571   8.578  12.898  0.00  0.00    +0.054 C 
BRANCH  20  21
ATOM     21  CG  TYR A   8      12.293   8.953  14.183  0.00  0.00    -0.020 A 
ATOM     22  CD2 TYR A   8      12.755   8.001  15.087  0.00  0.00    -0.001 A 
ATOM     23  CE2 TYR A   8      13.426   8.387  16.239  0.00  0.00    +0.036 A 
ATOM     24  CZ  TYR A   8      13.669   9.726  16.480  0.00  0.00    +0.134 A 
ATOM     25  CE1 TYR A   8      13.216  10.689  15.605  0.00  0.00    +0.036 A 
ATOM     26  CD1 TYR A   8      12.570  10.281  14.460  0.00  0.00    -0.001 A 
BRANCH  24  27
ATOM     27  OH  TYR A   8      14.356  10.072  17.630  0.00  0.00    -0.506 OA
ATOM     28  HH  TYR A   8      13.851   9.758  18.422  0.00  0.00    +0.292 HD
ENDBRANCH  24  27
ENDBRANCH  20  21
ENDBRANCH  17  20
ENDBRANCH  14  17
ENDBRANCH  12  13
BRANCH  12  29
ATOM     29  CB  ASP A   7      10.011  13.283  13.395  0.00  0.00    +0.143 C 
BRANCH  29  30
ATOM     30  CG  ASP A   7       9.475  14.630  13.870  0.00  0.00    +0.367 C 
ATOM     31  OD2 ASP A   7      10.037  15.224  14.827  0.00  0.00    -0.246 OA
ATOM     32  OD1 ASP A   7       8.461  15.101  13.276  0.00  0.00    -0.246 OA
ENDBRANCH  29  30
ENDBRANCH  12  29
ENDBRANCH   9  12
ENDBRANCH   6   8
ENDBRANCH   3   6
ENDBRANCH   1   2
BRANCH   1  33
ATOM     33  N   CYS A   5       3.374  15.074  16.886  0.00  0.00    -0.296 N 
ATOM     34  C   TRP A   4       2.891  15.058  18.128  0.00  0.00    +0.241 C 
ATOM     35  O   TRP A   4       2.217  14.132  18.624  0.00  0.00    -0.273 OA
ATOM     36  H   CYS A   5       3.844  15.929  16.527  0.00  0.00    +0.150 HD
BRANCH  34  37
ATOM     37  CA  TRP A   4       3.142  16.290  18.979  0.00  0.00    +0.153 C 
BRANCH  37  38
ATOM     38  N   TRP A   4       1.884  16.672  19.622  0.00  0.00    -0.297 N 
ATOM     39  H   TRP A   4       1.434  16.042  20.316  0.00  0.00    +0.150 HD
ATOM     40  C   GLY A   3       1.334  17.817  19.312  0.00  0.00    +0.243 C 
ATOM     41  O   GLY A   3       1.843  18.664  18.582  0.00  0.00    -0.273 OA
BRANCH  40  42
ATOM     42  CA  GLY A   3      -0.031  18.117  19.939  0.00  0.00    +0.176 C 
BRANCH  42  43
ATOM     43  N   GLY A   3       0.095  19.427  20.577  0.00  0.00    -0.295 N 
ATOM     44  C   ALA A   2      -0.725  19.728  21.581  0.00  0.00    +0.241 C 
ATOM     45  O   ALA A   2      -1.647  19.006  21.954  0.00  0.00    -0.273 OA
ATOM     46  H   GLY A   3       0.810  20.109  20.253  0.00  0.00    +0.150 HD
BRANCH  44  47
ATOM     47  CA  ALA A   2      -0.514  21.098  22.203  0.00  0.00    +0.149 C 
ATOM     48  CB  ALA A   2       0.635  20.947  23.216  0.00  0.00    +0.031 C 
BRANCH  47  49
ATOM     49  N   ALA A   2      -1.687  21.583  22.911  0.00  0.00    -0.297 N 
ATOM     50  H   ALA A   2      -2.394  20.913  23.276  0.00  0.00    +0.150 HD
ATOM     51  C   ARG A   1      -1.849  22.898  23.089  0.00  0.00    +0.238 C 
ATOM     52  O   ARG A   1      -1.085  23.720  22.551  0.00  0.00    -0.274 OA
BRANCH  51  53
ATOM     53  CA  ARG A   1      -3.049  23.410  23.885  0.00  0.00    +0.145 C 
BRANCH  53  54
ATOM     54  N   ARG A   1      -2.548  24.585  24.601  0.00  0.00    -0.238 NA
ATOM     55  H   ARG A   1      -2.993  25.507  24.415  0.00  0.00    +0.142 HD
ENDBRANCH  53  54
BRANCH  53  56
ATOM     56  CB  ARG A   1      -4.189  23.990  23.070  0.00  0.00    +0.030 C 
BRANCH  56  57
ATOM     57  CG  ARG A   1      -4.901  23.123  22.095  0.00  0.00    +0.045 C 
BRANCH  57  58
ATOM     58  CD  ARG A   1      -4.264  23.387  20.710  0.00  0.00    +0.174 C 
BRANCH  58  59
ATOM     59  NE  ARG A   1      -3.857  22.081  20.283  0.00  0.00    -0.265 N 
ATOM     60  HE  ARG A   1      -4.260  21.266  20.789  0.00  0.00    +0.259 HD
ATOM     61  CZ  ARG A   1      -3.003  21.825  19.289  0.00  0.00    +0.342 C 
ATOM     62  NH2 ARG A   1      -2.752  20.542  19.140  0.00  0.00    -0.292 N 
ATOM     63 HH21 ARG A   1      -3.206  19.847  19.767  0.00  0.00    +0.255 HD
ATOM     64 HH22 ARG A   1      -2.100  20.223  18.396  0.00  0.00    +0.255 HD
ATOM     65  NH1 ARG A   1      -2.458  22.727  18.512  0.00  0.00    -0.292 N 
ATOM     66 HH11 ARG A   1      -2.682  23.734  18.647  0.00  0.00    +0.255 HD
ATOM     67 HH12 ARG A   1      -1.801  22.437  17.760  0.00  0.00    +0.255 HD
ENDBRANCH  58  59
ENDBRANCH  57  58
ENDBRANCH  56  57
ENDBRANCH  53  56
ENDBRANCH  51  53
ENDBRANCH  47  49
ENDBRANCH  44  47
ENDBRANCH  42  43
ENDBRANCH  40  42
ENDBRANCH  37  38
BRANCH  37  68
ATOM     68  CB  TRP A   4       4.236  16.029  20.025  0.00  0.00    +0.057 C 
BRANCH  68  69
ATOM     69  CG  TRP A   4       5.559  15.631  19.398  0.00  0.00    -0.002 A 
ATOM     70  CD1 TRP A   4       6.057  14.366  19.212  0.00  0.00    +0.068 A 
ATOM     71  NE1 TRP A   4       7.307  14.453  18.617  0.00  0.00    -0.352 N 
ATOM     72  CE2 TRP A   4       7.613  15.764  18.401  0.00  0.00    +0.056 A 
ATOM     73  CZ2 TRP A   4       8.757  16.343  17.832  0.00  0.00    +0.017 A 
ATOM     74  CH2 TRP A   4       8.801  17.718  17.812  0.00  0.00    +0.001 A 
ATOM     75  CZ3 TRP A   4       7.764  18.495  18.290  0.00  0.00    +0.000 A 
ATOM     76  CE3 TRP A   4       6.616  17.927  18.863  0.00  0.00    +0.001 A 
ATOM     77  HE1 TRP A   4       7.915  13.645  18.374  0.00  0.00    +0.166 HD
ATOM     78  CD2 TRP A   4       6.540  16.531  18.880  0.00  0.00    +0.013 A 
ENDBRANCH  68  69
ENDBRANCH  37  68
ENDBRANCH  34  37
ENDBRANCH   1  33
BRANCH   1  79
ATOM     79  CB  CYS A   5       2.680  14.297  14.652  0.00  0.00    +0.098 C 
BRANCH  79  80
ATOM     80  SG  CYS A   5       0.921  14.759  14.758  0.00  0.00    -0.080 S 
BRANCH  80  81
ATOM     81  SG  GLY A   3      -0.045  12.973  15.073  0.00  0.00    -0.080 S 
BRANCH  81  82
ATOM     82  CB  GLY A   3      -0.510  12.956  16.798  0.00  0.00    +0.098 C 
BRANCH  82  83
ATOM     83  CA  GLY A   3       0.179  11.948  17.697  0.00  0.00    +0.160 C 
BRANCH  83  84
ATOM     84  C   GLY A   3      -0.547  11.936  19.052  0.00  0.00    +0.242 C 
ATOM     85  N   TRP A   4      -0.134  12.806  19.937  0.00  0.00    -0.295 N 
ATOM     86  H   TRP A   4       0.662  13.433  19.701  0.00  0.00    +0.150 HD
ATOM     87  O   GLY A   3      -1.549  11.215  19.200  0.00  0.00    -0.273 OA
BRANCH  85  88
ATOM     88  CA  TRP A   4      -0.763  12.916  21.244  0.00  0.00    +0.176 C 
BRANCH  88  89
ATOM     89  C   TRP A   4      -1.258  14.351  21.466  0.00  0.00    +0.243 C 
ATOM     90  N   CYS A   5      -2.516  14.492  21.857  0.00  0.00    -0.297 N 
ATOM     91  H   CYS A   5      -3.110  13.641  21.930  0.00  0.00    +0.150 HD
ATOM     92  O   TRP A   4      -0.510  15.284  21.207  0.00  0.00    -0.273 OA
BRANCH  90  93
ATOM     93  CA  CYS A   5      -3.111  15.789  22.192  0.00  0.00    +0.153 C 
BRANCH  93  94
ATOM     94  C   CYS A   5      -2.937  15.966  23.714  0.00  0.00    +0.241 C 
ATOM     95  O   CYS A   5      -3.292  15.055  24.485  0.00  0.00    -0.273 OA
ATOM     96  N   ALA A   6      -2.400  17.099  24.126  0.00  0.00    -0.298 N 
ATOM     97  H   ALA A   6      -2.162  17.834  23.429  0.00  0.00    +0.150 HD
BRANCH  96  98
ATOM     98  CA  ALA A   6      -2.134  17.340  25.537  0.00  0.00    +0.141 C 
BRANCH  98  99
ATOM     99  C   ALA A   6      -2.164  18.829  25.856  0.00  0.00    +0.227 C 
ATOM    100  O   ALA A   6      -2.115  19.626  24.922  0.00  0.00    -0.286 OA
ENDBRANCH  98  99
BRANCH  98 101
ATOM    101  CB  ALA A   6      -0.736  16.823  25.926  0.00  0.00    +0.054 C 
BRANCH 101 102
ATOM    102  CG  ALA A   6       0.487  17.333  25.195  0.00  0.00    -0.020 A 
ATOM    103  CD2 ALA A   6       1.423  18.169  25.826  0.00  0.00    -0.001 A 
ATOM    104  CE2 ALA A   6       2.580  18.629  25.184  0.00  0.00    +0.036 A 
ATOM    105  CZ  ALA A   6       2.789  18.235  23.880  0.00  0.00    +0.134 A 
ATOM    106  CE1 ALA A   6       1.883  17.417  23.230  0.00  0.00    +0.036 A 
ATOM    107  CD1 ALA A   6       0.747  16.957  23.888  0.00  0.00    -0.001 A 
BRANCH 105 108
ATOM    108  OH  ALA A   6       3.881  18.614  23.117  0.00  0.00    -0.506 OA
ATOM    109  HH  ALA A   6       3.898  19.600  23.034  0.00  0.00    +0.292 HD
ENDBRANCH 105 108
ENDBRANCH 101 102
ENDBRANCH  98 101
ENDBRANCH  96  98
ENDBRANCH  93  94
BRANCH  93 110
ATOM    110  CB  CYS A   5      -4.591  15.829  21.845  0.00  0.00    +0.055 C 
BRANCH 110 111
ATOM    111  CG  CYS A   5      -5.253  17.202  21.835  0.00  0.00    -0.020 A 
ATOM    112  CD2 CYS A   5      -5.490  17.945  22.992  0.00  0.00    -0.001 A 
ATOM    113  CE2 CYS A   5      -6.126  19.186  22.911  0.00  0.00    +0.036 A 
ATOM    114  CZ  CYS A   5      -6.568  19.636  21.676  0.00  0.00    +0.134 A 
ATOM    115  CE1 CYS A   5      -6.365  18.904  20.523  0.00  0.00    +0.036 A 
ATOM    116  CD1 CYS A   5      -5.713  17.676  20.611  0.00  0.00    -0.001 A 
BRANCH 114 117
ATOM    117  OH  CYS A   5      -7.207  20.874  21.544  0.00  0.00    -0.506 OA
ATOM    118  HH  CYS A   5      -7.292  21.297  22.435  0.00  0.00    +0.292 HD
ENDBRANCH 114 117
ENDBRANCH 110 111
ENDBRANCH  93 110
ENDBRANCH  90  93
ENDBRANCH  88  89
BRANCH  88 119
ATOM    119  CB  TRP A   4       0.212  12.542  22.373  0.00  0.00    +0.137 C 
ATOM    120  CG2 TRP A   4      -0.524  12.577  23.721  0.00  0.00    +0.034 C 
BRANCH 119 121
ATOM    121  OG1 TRP A   4       0.641  11.186  22.151  0.00  0.00    -0.382 OA
ATOM    122  HG1 TRP A   4       1.272  10.919  22.866  0.00  0.00    +0.210 HD
ENDBRANCH 119 121
ENDBRANCH  88 119
ENDBRANCH  85  88
ENDBRANCH  83  84
BRANCH  83 124
ATOM    123  C   ALA A   2       1.266  10.068  16.591  0.00  0.00    +0.241 C 
ATOM    124  N   GLY A   3       0.154  10.585  17.149  0.00  0.00    -0.296 N 
ATOM    125  H   GLY A   3      -0.719  10.021  17.192  0.00  0.00    +0.150 HD
ATOM    126  O   ALA A   2       2.338  10.687  16.450  0.00  0.00    -0.273 OA
BRANCH 123 127
ATOM    127  CA  ALA A   2       1.102   8.645  16.098  0.00  0.00    +0.149 C 
BRANCH 127 130
ATOM    128  C   ARG A   1      -1.102   8.421  15.139  0.00  0.00    +0.239 C 
ATOM    129  O   ARG A   1      -1.634   8.374  16.250  0.00  0.00    -0.274 OA
ATOM    130  N   ALA A   2       0.211   8.585  14.932  0.00  0.00    -0.297 N 
ATOM    131  H   ALA A   2       0.591   8.668  13.967  0.00  0.00    +0.150 HD
BRANCH 128 132
ATOM    132  CA  ARG A   1      -1.979   8.316  13.909  0.00  0.00    +0.149 C 
BRANCH 132 133
ATOM    133  N   ARG A   1      -2.803   7.096  14.024  0.00  0.00    -0.238 NA
ATOM    134  H   ARG A   1      -3.064   6.743  14.967  0.00  0.00    +0.142 HD
ENDBRANCH 132 133
BRANCH 132 135
ATOM    135  CB  ARG A   1      -2.913   9.520  13.816  0.00  0.00    +0.053 C 
BRANCH 135 136
ATOM    136  CG  ARG A   1      -2.386  10.803  13.209  0.00  0.00    -0.020 A 
ATOM    137  CD2 ARG A   1      -3.143  11.966  13.379  0.00  0.00    -0.001 A 
ATOM    138  CE2 ARG A   1      -2.736  13.168  12.811  0.00  0.00    +0.036 A 
ATOM    139  CZ  ARG A   1      -1.577  13.215  12.070  0.00  0.00    +0.134 A 
ATOM    140  CE1 ARG A   1      -0.817  12.093  11.891  0.00  0.00    +0.036 A 
ATOM    141  CD1 ARG A   1      -1.228  10.868  12.443  0.00  0.00    -0.001 A 
BRANCH 139 142
ATOM    142  OH  ARG A   1      -1.233  14.446  11.508  0.00  0.00    -0.506 OA
ATOM    143  HH  ARG A   1      -0.387  14.352  11.003  0.00  0.00    +0.292 HD
ENDBRANCH 139 142
ENDBRANCH 135 136
ENDBRANCH 132 135
ENDBRANCH 128 132
ENDBRANCH 127 130
BRANCH 127 144
ATOM    144  CB  ALA A   2       2.465   8.025  15.722  0.00  0.00    +0.029 C 
BRANCH 144 145
ATOM    145  CG  ALA A   2       2.418   6.496  15.620  0.00  0.00    +0.002 C 
ATOM    146  CD2 ALA A   2       2.115   5.937  16.999  0.00  0.00    +0.000 C 
ATOM    147  CD1 ALA A   2       3.727   5.927  15.078  0.00  0.00    +0.000 C 
ENDBRANCH 144 145
ENDBRANCH 127 144
ENDBRANCH 123 127
ENDBRANCH  83 124
ENDBRANCH  82  83
ENDBRANCH  81  82
ENDBRANCH  80  81
ENDBRANCH  79  80
ENDBRANCH   1  79
TORSDOF 57
REMARK  Name = ../refined-set-2016/1b9j/1b9j_pocket.pdb
REMARK  265 active torsions:
REMARK  status: ('A' for Active; 'I' for Inactive)
REMARK    1  A    between atoms: _1  and  _3
REMARK    2  A    between atoms: _3  and  _4
REMARK    3  A    between atoms: _3  and  _6
REMARK    4  A    between atoms: _6  and  _7
REMARK    5  A    between atoms: _12  and  _14
REMARK    6  A    between atoms: _14  and  _15
REMARK    7  A    between atoms: _17  and  _19
REMARK    8  A    between atoms: _19  and  _20
REMARK    9  A    between atoms: _19  and  _22
REMARK   10  A    between atoms: _22  and  _23
REMARK   11  A    between atoms: _25  and  _27
REMARK   12  A    between atoms: _27  and  _28
REMARK   13  A    between atoms: _27  and  _30
REMARK   14  A    between atoms: _30  and  _31
REMARK   15  A    between atoms: _31  and  _32
REMARK   16  A    between atoms: _37  and  _39
REMARK   17  A    between atoms: _39  and  _40
REMARK   18  A    between atoms: _39  and  _42
REMARK   19  A    between atoms: _42  and  _43
REMARK   20  A    between atoms: _46  and  _48
REMARK   21  A    between atoms: _48  and  _49
REMARK   22  A    between atoms: _48  and  _51
REMARK   23  A    between atoms: _51  and  _52
REMARK   24  A    between atoms: _52  and  _53
REMARK   25  A    between atoms: _56  and  _58
REMARK   26  A    between atoms: _58  and  _59
REMARK   27  A    between atoms: _61  and  _63
REMARK   28  A    between atoms: _63  and  _64
REMARK   29  A    between atoms: _63  and  _66
REMARK   30  A    between atoms: _70  and  _71
REMARK   31  A    between atoms: _76  and  _78
REMARK   32  A    between atoms: _78  and  _79
REMARK   33  A    between atoms: _78  and  _81
REMARK   34  A    between atoms: _81  and  _82
REMARK   35  A    between atoms: _82  and  _83
REMARK   36  A    between atoms: _86  and  _88
REMARK   37  A    between atoms: _88  and  _89
REMARK   38  A    between atoms: _88  and  _91
REMARK   39  A    between atoms: _91  and  _92
REMARK   40  A    between atoms: _94  and  _96
REMARK   41  A    between atoms: _96  and  _97
REMARK   42  A    between atoms: _96  and  _99
REMARK   43  A    between atoms: _99  and  _100
REMARK   44  A    between atoms: _105  and  _107
REMARK   45  A    between atoms: _107  and  _108
REMARK   46  A    between atoms: _107  and  _110
REMARK   47  A    between atoms: _110  and  _111
REMARK   48  A    between atoms: _111  and  _112
REMARK   49  A    between atoms: _112  and  _113
REMARK   50  A    between atoms: _123  and  _124
REMARK   51  A    between atoms: _129  and  _131
REMARK   52  A    between atoms: _131  and  _132
REMARK   53  A    between atoms: _131  and  _134
REMARK   54  A    between atoms: _134  and  _135
REMARK   55  A    between atoms: _140  and  _141
REMARK   56  A    between atoms: _143  and  _145
REMARK   57  A    between atoms: _145  and  _146
REMARK   58  A    between atoms: _145  and  _148
REMARK   59  A    between atoms: _148  and  _149
REMARK   60  A    between atoms: _154  and  _155
REMARK   61  A    between atoms: _157  and  _159
REMARK   62  A    between atoms: _159  and  _160
REMARK   63  A    between atoms: _159  and  _162
REMARK   64  A    between atoms: _165  and  _167
REMARK   65  A    between atoms: _167  and  _168
REMARK   66  A    between atoms: _167  and  _170
REMARK   67  A    between atoms: _170  and  _171
REMARK   68  A    between atoms: _177  and  _178
REMARK   69  A    between atoms: _183  and  _185
REMARK   70  A    between atoms: _185  and  _186
REMARK   71  A    between atoms: _185  and  _188
REMARK   72  A    between atoms: _188  and  _189
REMARK   73  A    between atoms: _191  and  _193
REMARK   74  A    between atoms: _193  and  _194
REMARK   75  A    between atoms: _193  and  _196
REMARK   76  A    between atoms: _196  and  _197
REMARK   77  A    between atoms: _197  and  _198
REMARK   78  A    between atoms: _201  and  _203
REMARK   79  A    between atoms: _203  and  _204
REMARK   80  A    between atoms: _203  and  _206
REMARK   81  A    between atoms: _206  and  _207
REMARK   82  A    between atoms: _212  and  _213
REMARK   83  A    between atoms: _215  and  _217
REMARK   84  A    between atoms: _217  and  _218
REMARK   85  A    between atoms: _217  and  _220
REMARK   86  A    between atoms: _220  and  _221
REMARK   87  A    between atoms: _226  and  _228
REMARK   88  A    between atoms: _228  and  _229
REMARK   89  A    between atoms: _228  and  _231
REMARK   90  A    between atoms: _231  and  _232
REMARK   91  A    between atoms: _237  and  _239
REMARK   92  A    between atoms: _239  and  _240
REMARK   93  A    between atoms: _239  and  _242
REMARK   94  A    between atoms: _242  and  _243
REMARK   95  A    between atoms: _243  and  _244
REMARK   96  A    between atoms: _246  and  _248
REMARK   97  A    between atoms: _248  and  _249
REMARK   98  A    between atoms: _248  and  _251
REMARK   99  A    between atoms: _251  and  _252
REMARK  100  A    between atoms: _257  and  _258
REMARK  101  A    between atoms: _260  and  _262
REMARK  102  A    between atoms: _262  and  _263
REMARK  103  A    between atoms: _262  and  _265
REMARK  104  A    between atoms: _265  and  _266
REMARK  105  A    between atoms: _269  and  _271
REMARK  106  A    between atoms: _271  and  _272
REMARK  107  A    between atoms: _271  and  _274
REMARK  108  A    between atoms: _274  and  _275
REMARK  109  A    between atoms: _275  and  _492
REMARK  110  A    between atoms: _276  and  _278
REMARK  111  A    between atoms: _278  and  _279
REMARK  112  A    between atoms: _278  and  _281
REMARK  113  A    between atoms: _281  and  _282
REMARK  114  A    between atoms: _285  and  _287
REMARK  115  A    between atoms: _287  and  _288
REMARK  116  A    between atoms: _287  and  _290
REMARK  117  A    between atoms: _290  and  _291
REMARK  118  A    between atoms: _296  and  _297
REMARK  119  A    between atoms: _299  and  _301
REMARK  120  A    between atoms: _301  and  _302
REMARK  121  A    between atoms: _301  and  _304
REMARK  122  A    between atoms: _304  and  _305
REMARK  123  A    between atoms: _310  and  _311
REMARK  124  A    between atoms: _313  and  _315
REMARK  125  A    between atoms: _315  and  _316
REMARK  126  A    between atoms: _315  and  _318
REMARK  127  A    between atoms: _318  and  _319
REMARK  128  A    between atoms: _319  and  _320
REMARK  129  A    between atoms: _323  and  _325
REMARK  130  A    between atoms: _325  and  _326
REMARK  131  A    between atoms: _325  and  _328
REMARK  132  A    between atoms: _328  and  _329
REMARK  133  A    between atoms: _334  and  _335
REMARK  134  A    between atoms: _337  and  _339
REMARK  135  A    between atoms: _339  and  _340
REMARK  136  A    between atoms: _339  and  _342
REMARK  137  A    between atoms: _342  and  _343
REMARK  138  A    between atoms: _348  and  _350
REMARK  139  A    between atoms: _350  and  _351
REMARK  140  A    between atoms: _350  and  _353
REMARK  141  A    between atoms: _353  and  _354
REMARK  142  A    between atoms: _357  and  _359
REMARK  143  A    between atoms: _359  and  _360
REMARK  144  A    between atoms: _359  and  _362
REMARK  145  A    between atoms: _362  and  _363
REMARK  146  A    between atoms: _368  and  _370
REMARK  147  A    between atoms: _370  and  _371
REMARK  148  A    between atoms: _370  and  _373
REMARK  149  A    between atoms: _373  and  _374
REMARK  150  A    between atoms: _384  and  _386
REMARK  151  A    between atoms: _386  and  _387
REMARK  152  A    between atoms: _386  and  _389
REMARK  153  A    between atoms: _389  and  _390
REMARK  154  A    between atoms: _396  and  _398
REMARK  155  A    between atoms: _398  and  _399
REMARK  156  A    between atoms: _398  and  _401
REMARK  157  A    between atoms: _401  and  _402
REMARK  158  A    between atoms: _405  and  _407
REMARK  159  A    between atoms: _407  and  _408
REMARK  160  A    between atoms: _407  and  _410
REMARK  161  A    between atoms: _410  and  _411
REMARK  162  A    between atoms: _414  and  _416
REMARK  163  A    between atoms: _416  and  _417
REMARK  164  A    between atoms: _416  and  _419
REMARK  165  A    between atoms: _419  and  _420
REMARK  166  A    between atoms: _420  and  _421
REMARK  167  A    between atoms: _421  and  _422
REMARK  168  A    between atoms: _431  and  _433
REMARK  169  A    between atoms: _433  and  _434
REMARK  170  A    between atoms: _433  and  _436
REMARK  171  A    between atoms: _436  and  _437
REMARK  172  A    between atoms: _442  and  _444
REMARK  173  A    between atoms: _444  and  _445
REMARK  174  A    between atoms: _444  and  _447
REMARK  175  A    between atoms: _447  and  _448
REMARK  176  A    between atoms: _448  and  _449
REMARK  177  A    between atoms: _449  and  _450
REMARK  178  A    between atoms: _459  and  _461
REMARK  179  A    between atoms: _461  and  _462
REMARK  180  A    between atoms: _465  and  _467
REMARK  181  A    between atoms: _467  and  _468
REMARK  182  A    between atoms: _470  and  _472
REMARK  183  A    between atoms: _472  and  _473
REMARK  184  A    between atoms: _472  and  _475
REMARK  185  A    between atoms: _475  and  _476
REMARK  186  A    between atoms: _486  and  _488
REMARK  187  A    between atoms: _488  and  _489
REMARK  188  A    between atoms: _488  and  _491
REMARK  189  A    between atoms: _491  and  _492
REMARK  190  A    between atoms: _493  and  _495
REMARK  191  A    between atoms: _495  and  _496
REMARK  192  A    between atoms: _499  and  _501
REMARK  193  A    between atoms: _501  and  _502
REMARK  194  A    between atoms: _501  and  _504
REMARK  195  A    between atoms: _504  and  _505
REMARK  196  A    between atoms: _508  and  _510
REMARK  197  A    between atoms: _510  and  _511
REMARK  198  A    between atoms: _510  and  _513
REMARK  199  A    between atoms: _513  and  _514
REMARK  200  A    between atoms: _519  and  _520
REMARK  201  A    between atoms: _522  and  _524
REMARK  202  A    between atoms: _524  and  _525
REMARK  203  A    between atoms: _524  and  _527
REMARK  204  A    between atoms: _527  and  _528
REMARK  205  A    between atoms: _530  and  _532
REMARK  206  A    between atoms: _532  and  _533
REMARK  207  A    between atoms: _532  and  _535
REMARK  208  A    between atoms: _535  and  _536
REMARK  209  A    between atoms: _542  and  _544
REMARK  210  A    between atoms: _544  and  _545
REMARK  211  A    between atoms: _544  and  _547
REMARK  212  A    between atoms: _547  and  _548
REMARK  213  A    between atoms: _551  and  _553
REMARK  214  A    between atoms: _553  and  _554
REMARK  215  A    between atoms: _553  and  _556
REMARK  216  A    between atoms: _556  and  _557
REMARK  217  A    between atoms: _559  and  _561
REMARK  218  A    between atoms: _561  and  _562
REMARK  219  A    between atoms: _561  and  _564
REMARK  220  A    between atoms: _564  and  _565
REMARK  221  A    between atoms: _570  and  _572
REMARK  222  A    between atoms: _572  and  _573
REMARK  223  A    between atoms: _572  and  _575
REMARK  224  A    between atoms: _575  and  _576
REMARK  225  A    between atoms: _581  and  _583
REMARK  226  A    between atoms: _583  and  _584
REMARK  227  A    between atoms: _583  and  _586
REMARK  228  A    between atoms: _586  and  _587
REMARK  229  A    between atoms: _590  and  _592
REMARK  230  A    between atoms: _592  and  _593
REMARK  231  A    between atoms: _592  and  _595
REMARK  232  A    between atoms: _595  and  _596
REMARK  233  A    between atoms: _601  and  _602
REMARK  234  A    between atoms: _604  and  _606
REMARK  235  A    between atoms: _606  and  _607
REMARK  236  A    between atoms: _606  and  _609
REMARK  237  A    between atoms: _609  and  _610
REMARK  238  A    between atoms: _615  and  _616
REMARK  239  A    between atoms: _618  and  _620
REMARK  240  A    between atoms: _620  and  _621
REMARK  241  A    between atoms: _620  and  _623
REMARK  242  A    between atoms: _626  and  _628
REMARK  243  A    between atoms: _628  and  _629
REMARK  244  A    between atoms: _628  and  _631
REMARK  245  A    between atoms: _631  and  _632
REMARK  246  A    between atoms: _637  and  _639
REMARK  247  A    between atoms: _639  and  _640
REMARK  248  A    between atoms: _643  and  _645
REMARK  249  A    between atoms: _645  and  _646
REMARK  250  A    between atoms: _645  and  _648
REMARK  251  A    between atoms: _648  and  _649
REMARK  252  A    between atoms: _649  and  _650
REMARK  253  A    between atoms: _650  and  _651
REMARK  254  A    between atoms: _660  and  _662
REMARK  255  A    between atoms: _662  and  _663
REMARK  256  A    between atoms: _662  and  _665
REMARK  257  A    between atoms: _665  and  _666
REMARK  258  A    between atoms: _669  and  _671
REMARK  259  A    between atoms: _671  and  _672
REMARK  260  A    between atoms: _671  and  _674
REMARK  261  A    between atoms: _674  and  _675
REMARK  262  A    between atoms: _678  and  _680
REMARK  263  A    between atoms: _680  and  _681
REMARK  264  A    between atoms: _680  and  _683
REMARK  265  A    between atoms: _683  and  _684
REMARK                            x       y       z     vdW  Elec       q    Type
REMARK                         _______ _______ _______ _____ _____    ______ ____
ROOT
ATOM      1  CA  GLU A   1       1.444  21.833  27.580  0.00  0.00    +0.134 C 
ENDROOT
BRANCH   1   2
ATOM      2  N   GLU A   1       0.052  21.542  27.235  0.00  0.00    -0.239 NA
ATOM      3  H   GLU A   1      -0.371  21.988  26.396  0.00  0.00    +0.142 HD
ENDBRANCH   1   2
BRANCH   1   4
ATOM      4  C   GLU A   1       1.558  22.862  28.706  0.00  0.00    +0.224 C 
ATOM      5  O   GLU A   1       0.993  23.940  28.632  0.00  0.00    -0.287 OA
ENDBRANCH   1   4
BRANCH   1   6
ATOM      6  CB  GLU A   1       2.186  22.339  26.334  0.00  0.00    +0.037 C 
BRANCH   6   7
ATOM      7  CG  GLU A   1       3.639  22.780  26.525  0.00  0.00    +0.116 C 
BRANCH   7   8
ATOM      8  CD  GLU A   1       4.192  23.363  25.232  0.00  0.00    +0.365 C 
ATOM      9  OE2 GLU A   1       3.872  24.523  24.877  0.00  0.00    -0.246 OA
ATOM     10  OE1 GLU A   1       4.915  22.618  24.533  0.00  0.00    -0.246 OA
ENDBRANCH   7   8
ENDBRANCH   6   7
ENDBRANCH   1   6
TORSDOF 5
REMARK  Name = ../refined-set-2016/1b9j/1b9j_pocket.pdb
REMARK  265 active torsions:
REMARK  status: ('A' for Active; 'I' for Inactive)
REMARK    1  A    between atoms: _1  and  _3
REMARK    2  A    between atoms: _3  and  _4
REMARK    3  A    between atoms: _3  and  _6
REMARK    4  A    between atoms: _6  and  _7
REMARK    5  A    between atoms: _12  and  _14
REMARK    6  A    between atoms: _14  and  _15
REMARK    7  A    between atoms: _17  and  _19
REMARK    8  A    between atoms: _19  and  _20
REMARK    9  A    between atoms: _19  and  _22
REMARK   10  A    between atoms: _22  and  _23
REMARK   11  A    between atoms: _25  and  _27
REMARK   12  A    between atoms: _27  and  _28
REMARK   13  A    between atoms: _27  and  _30
REMARK   14  A    between atoms: _30  and  _31
REMARK   15  A    between atoms: _31  and  _32
REMARK   16  A    between atoms: _37  and  _39
REMARK   17  A    between atoms: _39  and  _40
REMARK   18  A    between atoms: _39  and  _42
REMARK   19  A    between atoms: _42  and  _43
REMARK   20  A    between atoms: _46  and  _48
REMARK   21  A    between atoms: _48  and  _49
REMARK   22  A    between atoms: _48  and  _51
REMARK   23  A    between atoms: _51  and  _52
REMARK   24  A    between atoms: _52  and  _53
REMARK   25  A    between atoms: _56  and  _58
REMARK   26  A    between atoms: _58  and  _59
REMARK   27  A    between atoms: _61  and  _63
REMARK   28  A    between atoms: _63  and  _64
REMARK   29  A    between atoms: _63  and  _66
REMARK   30  A    between atoms: _70  and  _71
REMARK   31  A    between atoms: _76  and  _78
REMARK   32  A    between atoms: _78  and  _79
REMARK   33  A    between atoms: _78  and  _81
REMARK   34  A    between atoms: _81  and  _82
REMARK   35  A    between atoms: _82  and  _83
REMARK   36  A    between atoms: _86  and  _88
REMARK   37  A    between atoms: _88  and  _89
REMARK   38  A    between atoms: _88  and  _91
REMARK   39  A    between atoms: _91  and  _92
REMARK   40  A    between atoms: _94  and  _96
REMARK   41  A    between atoms: _96  and  _97
REMARK   42  A    between atoms: _96  and  _99
REMARK   43  A    between atoms: _99  and  _100
REMARK   44  A    between atoms: _105  and  _107
REMARK   45  A    between atoms: _107  and  _108
REMARK   46  A    between atoms: _107  and  _110
REMARK   47  A    between atoms: _110  and  _111
REMARK   48  A    between atoms: _111  and  _112
REMARK   49  A    between atoms: _112  and  _113
REMARK   50  A    between atoms: _123  and  _124
REMARK   51  A    between atoms: _129  and  _131
REMARK   52  A    between atoms: _131  and  _132
REMARK   53  A    between atoms: _131  and  _134
REMARK   54  A    between atoms: _134  and  _135
REMARK   55  A    between atoms: _140  and  _141
REMARK   56  A    between atoms: _143  and  _145
REMARK   57  A    between atoms: _145  and  _146
REMARK   58  A    between atoms: _145  and  _148
REMARK   59  A    between atoms: _148  and  _149
REMARK   60  A    between atoms: _154  and  _155
REMARK   61  A    between atoms: _157  and  _159
REMARK   62  A    between atoms: _159  and  _160
REMARK   63  A    between atoms: _159  and  _162
REMARK   64  A    between atoms: _165  and  _167
REMARK   65  A    between atoms: _167  and  _168
REMARK   66  A    between atoms: _167  and  _170
REMARK   67  A    between atoms: _170  and  _171
REMARK   68  A    between atoms: _177  and  _178
REMARK   69  A    between atoms: _183  and  _185
REMARK   70  A    between atoms: _185  and  _186
REMARK   71  A    between atoms: _185  and  _188
REMARK   72  A    between atoms: _188  and  _189
REMARK   73  A    between atoms: _191  and  _193
REMARK   74  A    between atoms: _193  and  _194
REMARK   75  A    between atoms: _193  and  _196
REMARK   76  A    between atoms: _196  and  _197
REMARK   77  A    between atoms: _197  and  _198
REMARK   78  A    between atoms: _201  and  _203
REMARK   79  A    between atoms: _203  and  _204
REMARK   80  A    between atoms: _203  and  _206
REMARK   81  A    between atoms: _206  and  _207
REMARK   82  A    between atoms: _212  and  _213
REMARK   83  A    between atoms: _215  and  _217
REMARK   84  A    between atoms: _217  and  _218
REMARK   85  A    between atoms: _217  and  _220
REMARK   86  A    between atoms: _220  and  _221
REMARK   87  A    between atoms: _226  and  _228
REMARK   88  A    between atoms: _228  and  _229
REMARK   89  A    between atoms: _228  and  _231
REMARK   90  A    between atoms: _231  and  _232
REMARK   91  A    between atoms: _237  and  _239
REMARK   92  A    between atoms: _239  and  _240
REMARK   93  A    between atoms: _239  and  _242
REMARK   94  A    between atoms: _242  and  _243
REMARK   95  A    between atoms: _243  and  _244
REMARK   96  A    between atoms: _246  and  _248
REMARK   97  A    between atoms: _248  and  _249
REMARK   98  A    between atoms: _248  and  _251
REMARK   99  A    between atoms: _251  and  _252
REMARK  100  A    between atoms: _257  and  _258
REMARK  101  A    between atoms: _260  and  _262
REMARK  102  A    between atoms: _262  and  _263
REMARK  103  A    between atoms: _262  and  _265
REMARK  104  A    between atoms: _265  and  _266
REMARK  105  A    between atoms: _269  and  _271
REMARK  106  A    between atoms: _271  and  _272
REMARK  107  A    between atoms: _271  and  _274
REMARK  108  A    between atoms: _274  and  _275
REMARK  109  A    between atoms: _275  and  _492
REMARK  110  A    between atoms: _276  and  _278
REMARK  111  A    between atoms: _278  and  _279
REMARK  112  A    between atoms: _278  and  _281
REMARK  113  A    between atoms: _281  and  _282
REMARK  114  A    between atoms: _285  and  _287
REMARK  115  A    between atoms: _287  and  _288
REMARK  116  A    between atoms: _287  and  _290
REMARK  117  A    between atoms: _290  and  _291
REMARK  118  A    between atoms: _296  and  _297
REMARK  119  A    between atoms: _299  and  _301
REMARK  120  A    between atoms: _301  and  _302
REMARK  121  A    between atoms: _301  and  _304
REMARK  122  A    between atoms: _304  and  _305
REMARK  123  A    between atoms: _310  and  _311
REMARK  124  A    between atoms: _313  and  _315
REMARK  125  A    between atoms: _315  and  _316
REMARK  126  A    between atoms: _315  and  _318
REMARK  127  A    between atoms: _318  and  _319
REMARK  128  A    between atoms: _319  and  _320
REMARK  129  A    between atoms: _323  and  _325
REMARK  130  A    between atoms: _325  and  _326
REMARK  131  A    between atoms: _325  and  _328
REMARK  132  A    between atoms: _328  and  _329
REMARK  133  A    between atoms: _334  and  _335
REMARK  134  A    between atoms: _337  and  _339
REMARK  135  A    between atoms: _339  and  _340
REMARK  136  A    between atoms: _339  and  _342
REMARK  137  A    between atoms: _342  and  _343
REMARK  138  A    between atoms: _348  and  _350
REMARK  139  A    between atoms: _350  and  _351
REMARK  140  A    between atoms: _350  and  _353
REMARK  141  A    between atoms: _353  and  _354
REMARK  142  A    between atoms: _357  and  _359
REMARK  143  A    between atoms: _359  and  _360
REMARK  144  A    between atoms: _359  and  _362
REMARK  145  A    between atoms: _362  and  _363
REMARK  146  A    between atoms: _368  and  _370
REMARK  147  A    between atoms: _370  and  _371
REMARK  148  A    between atoms: _370  and  _373
REMARK  149  A    between atoms: _373  and  _374
REMARK  150  A    between atoms: _384  and  _386
REMARK  151  A    between atoms: _386  and  _387
REMARK  152  A    between atoms: _386  and  _389
REMARK  153  A    between atoms: _389  and  _390
REMARK  154  A    between atoms: _396  and  _398
REMARK  155  A    between atoms: _398  and  _399
REMARK  156  A    between atoms: _398  and  _401
REMARK  157  A    between atoms: _401  and  _402
REMARK  158  A    between atoms: _405  and  _407
REMARK  159  A    between atoms: _407  and  _408
REMARK  160  A    between atoms: _407  and  _410
REMARK  161  A    between atoms: _410  and  _411
REMARK  162  A    between atoms: _414  and  _416
REMARK  163  A    between atoms: _416  and  _417
REMARK  164  A    between atoms: _416  and  _419
REMARK  165  A    between atoms: _419  and  _420
REMARK  166  A    between atoms: _420  and  _421
REMARK  167  A    between atoms: _421  and  _422
REMARK  168  A    between atoms: _431  and  _433
REMARK  169  A    between atoms: _433  and  _434
REMARK  170  A    between atoms: _433  and  _436
REMARK  171  A    between atoms: _436  and  _437
REMARK  172  A    between atoms: _442  and  _444
REMARK  173  A    between atoms: _444  and  _445
REMARK  174  A    between atoms: _444  and  _447
REMARK  175  A    between atoms: _447  and  _448
REMARK  176  A    between atoms: _448  and  _449
REMARK  177  A    between atoms: _449  and  _450
REMARK  178  A    between atoms: _459  and  _461
REMARK  179  A    between atoms: _461  and  _462
REMARK  180  A    between atoms: _465  and  _467
REMARK  181  A    between atoms: _467  and  _468
REMARK  182  A    between atoms: _470  and  _472
REMARK  183  A    between atoms: _472  and  _473
REMARK  184  A    between atoms: _472  and  _475
REMARK  185  A    between atoms: _475  and  _476
REMARK  186  A    between atoms: _486  and  _488
REMARK  187  A    between atoms: _488  and  _489
REMARK  188  A    between atoms: _488  and  _491
REMARK  189  A    between atoms: _491  and  _492
REMARK  190  A    between atoms: _493  and  _495
REMARK  191  A    between atoms: _495  and  _496
REMARK  192  A    between atoms: _499  and  _501
REMARK  193  A    between atoms: _501  and  _502
REMARK  194  A    between atoms: _501  and  _504
REMARK  195  A    between atoms: _504  and  _505
REMARK  196  A    between atoms: _508  and  _510
REMARK  197  A    between atoms: _510  and  _511
REMARK  198  A    between atoms: _510  and  _513
REMARK  199  A    between atoms: _513  and  _514
REMARK  200  A    between atoms: _519  and  _520
REMARK  201  A    between atoms: _522  and  _524
REMARK  202  A    between atoms: _524  and  _525
REMARK  203  A    between atoms: _524  and  _527
REMARK  204  A    between atoms: _527  and  _528
REMARK  205  A    between atoms: _530  and  _532
REMARK  206  A    between atoms: _532  and  _533
REMARK  207  A    between atoms: _532  and  _535
REMARK  208  A    between atoms: _535  and  _536
REMARK  209  A    between atoms: _542  and  _544
REMARK  210  A    between atoms: _544  and  _545
REMARK  211  A    between atoms: _544  and  _547
REMARK  212  A    between atoms: _547  and  _548
REMARK  213  A    between atoms: _551  and  _553
REMARK  214  A    between atoms: _553  and  _554
REMARK  215  A    between atoms: _553  and  _556
REMARK  216  A    between atoms: _556  and  _557
REMARK  217  A    between atoms: _559  and  _561
REMARK  218  A    between atoms: _561  and  _562
REMARK  219  A    between atoms: _561  and  _564
REMARK  220  A    between atoms: _564  and  _565
REMARK  221  A    between atoms: _570  and  _572
REMARK  222  A    between atoms: _572  and  _573
REMARK  223  A    between atoms: _572  and  _575
REMARK  224  A    between atoms: _575  and  _576
REMARK  225  A    between atoms: _581  and  _583
REMARK  226  A    between atoms: _583  and  _584
REMARK  227  A    between atoms: _583  and  _586
REMARK  228  A    between atoms: _586  and  _587
REMARK  229  A    between atoms: _590  and  _592
REMARK  230  A    between atoms: _592  and  _593
REMARK  231  A    between atoms: _592  and  _595
REMARK  232  A    between atoms: _595  and  _596
REMARK  233  A    between atoms: _601  and  _602
REMARK  234  A    between atoms: _604  and  _606
REMARK  235  A    between atoms: _606  and  _607
REMARK  236  A    between atoms: _606  and  _609
REMARK  237  A    between atoms: _609  and  _610
REMARK  238  A    between atoms: _615  and  _616
REMARK  239  A    between atoms: _618  and  _620
REMARK  240  A    between atoms: _620  and  _621
REMARK  241  A    between atoms: _620  and  _623
REMARK  242  A    between atoms: _626  and  _628
REMARK  243  A    between atoms: _628  and  _629
REMARK  244  A    between atoms: _628  and  _631
REMARK  245  A    between atoms: _631  and  _632
REMARK  246  A    between atoms: _637  and  _639
REMARK  247  A    between atoms: _639  and  _640
REMARK  248  A    between atoms: _643  and  _645
REMARK  249  A    between atoms: _645  and  _646
REMARK  250  A    between atoms: _645  and  _648
REMARK  251  A    between atoms: _648  and  _649
REMARK  252  A    between atoms: _649  and  _650
REMARK  253  A    between atoms: _650  and  _651
REMARK  254  A    between atoms: _660  and  _662
REMARK  255  A    between atoms: _662  and  _663
REMARK  256  A    between atoms: _662  and  _665
REMARK  257  A    between atoms: _665  and  _666
REMARK  258  A    between atoms: _669  and  _671
REMARK  259  A    between atoms: _671  and  _672
REMARK  260  A    between atoms: _671  and  _674
REMARK  261  A    between atoms: _674  and  _675
REMARK  262  A    between atoms: _678  and  _680
REMARK  263  A    between atoms: _680  and  _681
REMARK  264  A    between atoms: _680  and  _683
REMARK  265  A    between atoms: _683  and  _684
REMARK                            x       y       z     vdW  Elec       q    Type
REMARK                         _______ _______ _______ _____ _____    ______ ____
ROOT
ATOM      1  CG  TYR A   1       4.979  13.256  25.427  0.00  0.00    -0.020 A 
ATOM      2  CD2 TYR A   1       6.347  13.376  25.222  0.00  0.00    -0.001 A 
ATOM      3  CE2 TYR A   1       6.861  14.330  24.352  0.00  0.00    +0.036 A 
ATOM      4  CZ  TYR A   1       5.997  15.198  23.719  0.00  0.00    +0.134 A 
ATOM      5  CE1 TYR A   1       4.631  15.105  23.896  0.00  0.00    +0.036 A 
ATOM      6  CD1 TYR A   1       4.126  14.130  24.748  0.00  0.00    -0.001 A 
ENDROOT
BRANCH   4   7
ATOM      7  OH  TYR A   1       6.505  16.185  22.868  0.00  0.00    -0.506 OA
ATOM      8  HH  TYR A   1       7.113  16.777  23.377  0.00  0.00    +0.292 HD
ENDBRANCH   4   7
BRANCH   1   9
ATOM      9  CB  TYR A   1       4.454  12.235  26.397  0.00  0.00    +0.051 C 
BRANCH   9  10
ATOM     10  CA  TYR A   1       3.192  11.474  26.024  0.00  0.00    +0.137 C 
BRANCH  10  11
ATOM     11  N   TYR A   1       2.861  10.527  27.107  0.00  0.00    -0.239 NA
ATOM     12  H   TYR A   1       3.617  10.066  27.652  0.00  0.00    +0.142 HD
ENDBRANCH  10  11
BRANCH  10  13
ATOM     13  C   TYR A   1       3.395  10.643  24.754  0.00  0.00    +0.224 C 
ATOM     14  O   TYR A   1       2.635  10.687  23.789  0.00  0.00    -0.287 OA
ENDBRANCH  10  13
ENDBRANCH   9  10
ENDBRANCH   1   9
TORSDOF 5
REMARK  Name = ../refined-set-2016/1b9j/1b9j_pocket.pdb
REMARK  265 active torsions:
REMARK  status: ('A' for Active; 'I' for Inactive)
REMARK    1  A    between atoms: _1  and  _3
REMARK    2  A    between atoms: _3  and  _4
REMARK    3  A    between atoms: _3  and  _6
REMARK    4  A    between atoms: _6  and  _7
REMARK    5  A    between atoms: _12  and  _14
REMARK    6  A    between atoms: _14  and  _15
REMARK    7  A    between atoms: _17  and  _19
REMARK    8  A    between atoms: _19  and  _20
REMARK    9  A    between atoms: _19  and  _22
REMARK   10  A    between atoms: _22  and  _23
REMARK   11  A    between atoms: _25  and  _27
REMARK   12  A    between atoms: _27  and  _28
REMARK   13  A    between atoms: _27  and  _30
REMARK   14  A    between atoms: _30  and  _31
REMARK   15  A    between atoms: _31  and  _32
REMARK   16  A    between atoms: _37  and  _39
REMARK   17  A    between atoms: _39  and  _40
REMARK   18  A    between atoms: _39  and  _42
REMARK   19  A    between atoms: _42  and  _43
REMARK   20  A    between atoms: _46  and  _48
REMARK   21  A    between atoms: _48  and  _49
REMARK   22  A    between atoms: _48  and  _51
REMARK   23  A    between atoms: _51  and  _52
REMARK   24  A    between atoms: _52  and  _53
REMARK   25  A    between atoms: _56  and  _58
REMARK   26  A    between atoms: _58  and  _59
REMARK   27  A    between atoms: _61  and  _63
REMARK   28  A    between atoms: _63  and  _64
REMARK   29  A    between atoms: _63  and  _66
REMARK   30  A    between atoms: _70  and  _71
REMARK   31  A    between atoms: _76  and  _78
REMARK   32  A    between atoms: _78  and  _79
REMARK   33  A    between atoms: _78  and  _81
REMARK   34  A    between atoms: _81  and  _82
REMARK   35  A    between atoms: _82  and  _83
REMARK   36  A    between atoms: _86  and  _88
REMARK   37  A    between atoms: _88  and  _89
REMARK   38  A    between atoms: _88  and  _91
REMARK   39  A    between atoms: _91  and  _92
REMARK   40  A    between atoms: _94  and  _96
REMARK   41  A    between atoms: _96  and  _97
REMARK   42  A    between atoms: _96  and  _99
REMARK   43  A    between atoms: _99  and  _100
REMARK   44  A    between atoms: _105  and  _107
REMARK   45  A    between atoms: _107  and  _108
REMARK   46  A    between atoms: _107  and  _110
REMARK   47  A    between atoms: _110  and  _111
REMARK   48  A    between atoms: _111  and  _112
REMARK   49  A    between atoms: _112  and  _113
REMARK   50  A    between atoms: _123  and  _124
REMARK   51  A    between atoms: _129  and  _131
REMARK   52  A    between atoms: _131  and  _132
REMARK   53  A    between atoms: _131  and  _134
REMARK   54  A    between atoms: _134  and  _135
REMARK   55  A    between atoms: _140  and  _141
REMARK   56  A    between atoms: _143  and  _145
REMARK   57  A    between atoms: _145  and  _146
REMARK   58  A    between atoms: _145  and  _148
REMARK   59  A    between atoms: _148  and  _149
REMARK   60  A    between atoms: _154  and  _155
REMARK   61  A    between atoms: _157  and  _159
REMARK   62  A    between atoms: _159  and  _160
REMARK   63  A    between atoms: _159  and  _162
REMARK   64  A    between atoms: _165  and  _167
REMARK   65  A    between atoms: _167  and  _168
REMARK   66  A    between atoms: _167  and  _170
REMARK   67  A    between atoms: _170  and  _171
REMARK   68  A    between atoms: _177  and  _178
REMARK   69  A    between atoms: _183  and  _185
REMARK   70  A    between atoms: _185  and  _186
REMARK   71  A    between atoms: _185  and  _188
REMARK   72  A    between atoms: _188  and  _189
REMARK   73  A    between atoms: _191  and  _193
REMARK   74  A    between atoms: _193  and  _194
REMARK   75  A    between atoms: _193  and  _196
REMARK   76  A    between atoms: _196  and  _197
REMARK   77  A    between atoms: _197  and  _198
REMARK   78  A    between atoms: _201  and  _203
REMARK   79  A    between atoms: _203  and  _204
REMARK   80  A    between atoms: _203  and  _206
REMARK   81  A    between atoms: _206  and  _207
REMARK   82  A    between atoms: _212  and  _213
REMARK   83  A    between atoms: _215  and  _217
REMARK   84  A    between atoms: _217  and  _218
REMARK   85  A    between atoms: _217  and  _220
REMARK   86  A    between atoms: _220  and  _221
REMARK   87  A    between atoms: _226  and  _228
REMARK   88  A    between atoms: _228  and  _229
REMARK   89  A    between atoms: _228  and  _231
REMARK   90  A    between atoms: _231  and  _232
REMARK   91  A    between atoms: _237  and  _239
REMARK   92  A    between atoms: _239  and  _240
REMARK   93  A    between atoms: _239  and  _242
REMARK   94  A    between atoms: _242  and  _243
REMARK   95  A    between atoms: _243  and  _244
REMARK   96  A    between atoms: _246  and  _248
REMARK   97  A    between atoms: _248  and  _249
REMARK   98  A    between atoms: _248  and  _251
REMARK   99  A    between atoms: _251  and  _252
REMARK  100  A    between atoms: _257  and  _258
REMARK  101  A    between atoms: _260  and  _262
REMARK  102  A    between atoms: _262  and  _263
REMARK  103  A    between atoms: _262  and  _265
REMARK  104  A    between atoms: _265  and  _266
REMARK  105  A    between atoms: _269  and  _271
REMARK  106  A    between atoms: _271  and  _272
REMARK  107  A    between atoms: _271  and  _274
REMARK  108  A    between atoms: _274  and  _275
REMARK  109  A    between atoms: _275  and  _492
REMARK  110  A    between atoms: _276  and  _278
REMARK  111  A    between atoms: _278  and  _279
REMARK  112  A    between atoms: _278  and  _281
REMARK  113  A    between atoms: _281  and  _282
REMARK  114  A    between atoms: _285  and  _287
REMARK  115  A    between atoms: _287  and  _288
REMARK  116  A    between atoms: _287  and  _290
REMARK  117  A    between atoms: _290  and  _291
REMARK  118  A    between atoms: _296  and  _297
REMARK  119  A    between atoms: _299  and  _301
REMARK  120  A    between atoms: _301  and  _302
REMARK  121  A    between atoms: _301  and  _304
REMARK  122  A    between atoms: _304  and  _305
REMARK  123  A    between atoms: _310  and  _311
REMARK  124  A    between atoms: _313  and  _315
REMARK  125  A    between atoms: _315  and  _316
REMARK  126  A    between atoms: _315  and  _318
REMARK  127  A    between atoms: _318  and  _319
REMARK  128  A    between atoms: _319  and  _320
REMARK  129  A    between atoms: _323  and  _325
REMARK  130  A    between atoms: _325  and  _326
REMARK  131  A    between atoms: _325  and  _328
REMARK  132  A    between atoms: _328  and  _329
REMARK  133  A    between atoms: _334  and  _335
REMARK  134  A    between atoms: _337  and  _339
REMARK  135  A    between atoms: _339  and  _340
REMARK  136  A    between atoms: _339  and  _342
REMARK  137  A    between atoms: _342  and  _343
REMARK  138  A    between atoms: _348  and  _350
REMARK  139  A    between atoms: _350  and  _351
REMARK  140  A    between atoms: _350  and  _353
REMARK  141  A    between atoms: _353  and  _354
REMARK  142  A    between atoms: _357  and  _359
REMARK  143  A    between atoms: _359  and  _360
REMARK  144  A    between atoms: _359  and  _362
REMARK  145  A    between atoms: _362  and  _363
REMARK  146  A    between atoms: _368  and  _370
REMARK  147  A    between atoms: _370  and  _371
REMARK  148  A    between atoms: _370  and  _373
REMARK  149  A    between atoms: _373  and  _374
REMARK  150  A    between atoms: _384  and  _386
REMARK  151  A    between atoms: _386  and  _387
REMARK  152  A    between atoms: _386  and  _389
REMARK  153  A    between atoms: _389  and  _390
REMARK  154  A    between atoms: _396  and  _398
REMARK  155  A    between atoms: _398  and  _399
REMARK  156  A    between atoms: _398  and  _401
REMARK  157  A    between atoms: _401  and  _402
REMARK  158  A    between atoms: _405  and  _407
REMARK  159  A    between atoms: _407  and  _408
REMARK  160  A    between atoms: _407  and  _410
REMARK  161  A    between atoms: _410  and  _411
REMARK  162  A    between atoms: _414  and  _416
REMARK  163  A    between atoms: _416  and  _417
REMARK  164  A    between atoms: _416  and  _419
REMARK  165  A    between atoms: _419  and  _420
REMARK  166  A    between atoms: _420  and  _421
REMARK  167  A    between atoms: _421  and  _422
REMARK  168  A    between atoms: _431  and  _433
REMARK  169  A    between atoms: _433  and  _434
REMARK  170  A    between atoms: _433  and  _436
REMARK  171  A    between atoms: _436  and  _437
REMARK  172  A    between atoms: _442  and  _444
REMARK  173  A    between atoms: _444  and  _445
REMARK  174  A    between atoms: _444  and  _447
REMARK  175  A    between atoms: _447  and  _448
REMARK  176  A    between atoms: _448  and  _449
REMARK  177  A    between atoms: _449  and  _450
REMARK  178  A    between atoms: _459  and  _461
REMARK  179  A    between atoms: _461  and  _462
REMARK  180  A    between atoms: _465  and  _467
REMARK  181  A    between atoms: _467  and  _468
REMARK  182  A    between atoms: _470  and  _472
REMARK  183  A    between atoms: _472  and  _473
REMARK  184  A    between atoms: _472  and  _475
REMARK  185  A    between atoms: _475  and  _476
REMARK  186  A    between atoms: _486  and  _488
REMARK  187  A    between atoms: _488  and  _489
REMARK  188  A    between atoms: _488  and  _491
REMARK  189  A    between atoms: _491  and  _492
REMARK  190  A    between atoms: _493  and  _495
REMARK  191  A    between atoms: _495  and  _496
REMARK  192  A    between atoms: _499  and  _501
REMARK  193  A    between atoms: _501  and  _502
REMARK  194  A    between atoms: _501  and  _504
REMARK  195  A    between atoms: _504  and  _505
REMARK  196  A    between atoms: _508  and  _510
REMARK  197  A    between atoms: _510  and  _511
REMARK  198  A    between atoms: _510  and  _513
REMARK  199  A    between atoms: _513  and  _514
REMARK  200  A    between atoms: _519  and  _520
REMARK  201  A    between atoms: _522  and  _524
REMARK  202  A    between atoms: _524  and  _525
REMARK  203  A    between atoms: _524  and  _527
REMARK  204  A    between atoms: _527  and  _528
REMARK  205  A    between atoms: _530  and  _532
REMARK  206  A    between atoms: _532  and  _533
REMARK  207  A    between atoms: _532  and  _535
REMARK  208  A    between atoms: _535  and  _536
REMARK  209  A    between atoms: _542  and  _544
REMARK  210  A    between atoms: _544  and  _545
REMARK  211  A    between atoms: _544  and  _547
REMARK  212  A    between atoms: _547  and  _548
REMARK  213  A    between atoms: _551  and  _553
REMARK  214  A    between atoms: _553  and  _554
REMARK  215  A    between atoms: _553  and  _556
REMARK  216  A    between atoms: _556  and  _557
REMARK  217  A    between atoms: _559  and  _561
REMARK  218  A    between atoms: _561  and  _562
REMARK  219  A    between atoms: _561  and  _564
REMARK  220  A    between atoms: _564  and  _565
REMARK  221  A    between atoms: _570  and  _572
REMARK  222  A    between atoms: _572  and  _573
REMARK  223  A    between atoms: _572  and  _575
REMARK  224  A    between atoms: _575  and  _576
REMARK  225  A    between atoms: _581  and  _583
REMARK  226  A    between atoms: _583  and  _584
REMARK  227  A    between atoms: _583  and  _586
REMARK  228  A    between atoms: _586  and  _587
REMARK  229  A    between atoms: _590  and  _592
REMARK  230  A    between atoms: _592  and  _593
REMARK  231  A    between atoms: _592  and  _595
REMARK  232  A    between atoms: _595  and  _596
REMARK  233  A    between atoms: _601  and  _602
REMARK  234  A    between atoms: _604  and  _606
REMARK  235  A    between atoms: _606  and  _607
REMARK  236  A    between atoms: _606  and  _609
REMARK  237  A    between atoms: _609  and  _610
REMARK  238  A    between atoms: _615  and  _616
REMARK  239  A    between atoms: _618  and  _620
REMARK  240  A    between atoms: _620  and  _621
REMARK  241  A    between atoms: _620  and  _623
REMARK  242  A    between atoms: _626  and  _628
REMARK  243  A    between atoms: _628  and  _629
REMARK  244  A    between atoms: _628  and  _631
REMARK  245  A    between atoms: _631  and  _632
REMARK  246  A    between atoms: _637  and  _639
REMARK  247  A    between atoms: _639  and  _640
REMARK  248  A    between atoms: _643  and  _645
REMARK  249  A    between atoms: _645  and  _646
REMARK  250  A    between atoms: _645  and  _648
REMARK  251  A    between atoms: _648  and  _649
REMARK  252  A    between atoms: _649  and  _650
REMARK  253  A    between atoms: _650  and  _651
REMARK  254  A    between atoms: _660  and  _662
REMARK  255  A    between atoms: _662  and  _663
REMARK  256  A    between atoms: _662  and  _665
REMARK  257  A    between atoms: _665  and  _666
REMARK  258  A    between atoms: _669  and  _671
REMARK  259  A    between atoms: _671  and  _672
REMARK  260  A    between atoms: _671  and  _674
REMARK  261  A    between atoms: _674  and  _675
REMARK  262  A    between atoms: _678  and  _680
REMARK  263  A    between atoms: _680  and  _681
REMARK  264  A    between atoms: _680  and  _683
REMARK  265  A    between atoms: _683  and  _684
REMARK                            x       y       z     vdW  Elec       q    Type
REMARK                         _______ _______ _______ _____ _____    ______ ____
ROOT
ATOM      1  CB  ASN A   1      -3.199  27.436  17.239  0.00  0.00    +0.110 C 
ENDROOT
BRANCH   1   2
ATOM      2  CG  ASN A   1      -3.515  25.957  17.111  0.00  0.00    +0.221 C 
ATOM      3  OD1 ASN A   1      -3.431  25.203  18.089  0.00  0.00    -0.275 OA
ATOM      4  ND2 ASN A   1      -3.842  25.493  15.890  0.00  0.00    -0.329 N 
ATOM      5 HD21 ASN A   1      -4.031  24.480  15.752  0.00  0.00    +0.145 HD
ATOM      6 HD22 ASN A   1      -3.906  26.148  15.085  0.00  0.00    +0.145 HD
ENDBRANCH   1   2
BRANCH   1   7
ATOM      7  CA  ASN A   1      -4.237  28.230  18.047  0.00  0.00    +0.142 C 
BRANCH   7   8
ATOM      8  N   ASN A   1      -4.275  27.591  19.381  0.00  0.00    -0.239 NA
ATOM      9  H   ASN A   1      -4.051  26.584  19.512  0.00  0.00    +0.142 HD
ENDBRANCH   7   8
BRANCH   7  10
ATOM     10  C   ASN A   1      -5.629  28.226  17.452  0.00  0.00    +0.225 C 
ATOM     11  O   ASN A   1      -6.385  27.275  17.603  0.00  0.00    -0.287 OA
ENDBRANCH   7  10
ENDBRANCH   1   7
TORSDOF 4
REMARK  Name = ../refined-set-2016/1b9j/1b9j_pocket.pdb
REMARK  265 active torsions:
REMARK  status: ('A' for Active; 'I' for Inactive)
REMARK    1  A    between atoms: _1  and  _3
REMARK    2  A    between atoms: _3  and  _4
REMARK    3  A    between atoms: _3  and  _6
REMARK    4  A    between atoms: _6  and  _7
REMARK    5  A    between atoms: _12  and  _14
REMARK    6  A    between atoms: _14  and  _15
REMARK    7  A    between atoms: _17  and  _19
REMARK    8  A    between atoms: _19  and  _20
REMARK    9  A    between atoms: _19  and  _22
REMARK   10  A    between atoms: _22  and  _23
REMARK   11  A    between atoms: _25  and  _27
REMARK   12  A    between atoms: _27  and  _28
REMARK   13  A    between atoms: _27  and  _30
REMARK   14  A    between atoms: _30  and  _31
REMARK   15  A    between atoms: _31  and  _32
REMARK   16  A    between atoms: _37  and  _39
REMARK   17  A    between atoms: _39  and  _40
REMARK   18  A    between atoms: _39  and  _42
REMARK   19  A    between atoms: _42  and  _43
REMARK   20  A    between atoms: _46  and  _48
REMARK   21  A    between atoms: _48  and  _49
REMARK   22  A    between atoms: _48  and  _51
REMARK   23  A    between atoms: _51  and  _52
REMARK   24  A    between atoms: _52  and  _53
REMARK   25  A    between atoms: _56  and  _58
REMARK   26  A    between atoms: _58  and  _59
REMARK   27  A    between atoms: _61  and  _63
REMARK   28  A    between atoms: _63  and  _64
REMARK   29  A    between atoms: _63  and  _66
REMARK   30  A    between atoms: _70  and  _71
REMARK   31  A    between atoms: _76  and  _78
REMARK   32  A    between atoms: _78  and  _79
REMARK   33  A    between atoms: _78  and  _81
REMARK   34  A    between atoms: _81  and  _82
REMARK   35  A    between atoms: _82  and  _83
REMARK   36  A    between atoms: _86  and  _88
REMARK   37  A    between atoms: _88  and  _89
REMARK   38  A    between atoms: _88  and  _91
REMARK   39  A    between atoms: _91  and  _92
REMARK   40  A    between atoms: _94  and  _96
REMARK   41  A    between atoms: _96  and  _97
REMARK   42  A    between atoms: _96  and  _99
REMARK   43  A    between atoms: _99  and  _100
REMARK   44  A    between atoms: _105  and  _107
REMARK   45  A    between atoms: _107  and  _108
REMARK   46  A    between atoms: _107  and  _110
REMARK   47  A    between atoms: _110  and  _111
REMARK   48  A    between atoms: _111  and  _112
REMARK   49  A    between atoms: _112  and  _113
REMARK   50  A    between atoms: _123  and  _124
REMARK   51  A    between atoms: _129  and  _131
REMARK   52  A    between atoms: _131  and  _132
REMARK   53  A    between atoms: _131  and  _134
REMARK   54  A    between atoms: _134  and  _135
REMARK   55  A    between atoms: _140  and  _141
REMARK   56  A    between atoms: _143  and  _145
REMARK   57  A    between atoms: _145  and  _146
REMARK   58  A    between atoms: _145  and  _148
REMARK   59  A    between atoms: _148  and  _149
REMARK   60  A    between atoms: _154  and  _155
REMARK   61  A    between atoms: _157  and  _159
REMARK   62  A    between atoms: _159  and  _160
REMARK   63  A    between atoms: _159  and  _162
REMARK   64  A    between atoms: _165  and  _167
REMARK   65  A    between atoms: _167  and  _168
REMARK   66  A    between atoms: _167  and  _170
REMARK   67  A    between atoms: _170  and  _171
REMARK   68  A    between atoms: _177  and  _178
REMARK   69  A    between atoms: _183  and  _185
REMARK   70  A    between atoms: _185  and  _186
REMARK   71  A    between atoms: _185  and  _188
REMARK   72  A    between atoms: _188  and  _189
REMARK   73  A    between atoms: _191  and  _193
REMARK   74  A    between atoms: _193  and  _194
REMARK   75  A    between atoms: _193  and  _196
REMARK   76  A    between atoms: _196  and  _197
REMARK   77  A    between atoms: _197  and  _198
REMARK   78  A    between atoms: _201  and  _203
REMARK   79  A    between atoms: _203  and  _204
REMARK   80  A    between atoms: _203  and  _206
REMARK   81  A    between atoms: _206  and  _207
REMARK   82  A    between atoms: _212  and  _213
REMARK   83  A    between atoms: _215  and  _217
REMARK   84  A    between atoms: _217  and  _218
REMARK   85  A    between atoms: _217  and  _220
REMARK   86  A    between atoms: _220  and  _221
REMARK   87  A    between atoms: _226  and  _228
REMARK   88  A    between atoms: _228  and  _229
REMARK   89  A    between atoms: _228  and  _231
REMARK   90  A    between atoms: _231  and  _232
REMARK   91  A    between atoms: _237  and  _239
REMARK   92  A    between atoms: _239  and  _240
REMARK   93  A    between atoms: _239  and  _242
REMARK   94  A    between atoms: _242  and  _243
REMARK   95  A    between atoms: _243  and  _244
REMARK   96  A    between atoms: _246  and  _248
REMARK   97  A    between atoms: _248  and  _249
REMARK   98  A    between atoms: _248  and  _251
REMARK   99  A    between atoms: _251  and  _252
REMARK  100  A    between atoms: _257  and  _258
REMARK  101  A    between atoms: _260  and  _262
REMARK  102  A    between atoms: _262  and  _263
REMARK  103  A    between atoms: _262  and  _265
REMARK  104  A    between atoms: _265  and  _266
REMARK  105  A    between atoms: _269  and  _271
REMARK  106  A    between atoms: _271  and  _272
REMARK  107  A    between atoms: _271  and  _274
REMARK  108  A    between atoms: _274  and  _275
REMARK  109  A    between atoms: _275  and  _492
REMARK  110  A    between atoms: _276  and  _278
REMARK  111  A    between atoms: _278  and  _279
REMARK  112  A    between atoms: _278  and  _281
REMARK  113  A    between atoms: _281  and  _282
REMARK  114  A    between atoms: _285  and  _287
REMARK  115  A    between atoms: _287  and  _288
REMARK  116  A    between atoms: _287  and  _290
REMARK  117  A    between atoms: _290  and  _291
REMARK  118  A    between atoms: _296  and  _297
REMARK  119  A    between atoms: _299  and  _301
REMARK  120  A    between atoms: _301  and  _302
REMARK  121  A    between atoms: _301  and  _304
REMARK  122  A    between atoms: _304  and  _305
REMARK  123  A    between atoms: _310  and  _311
REMARK  124  A    between atoms: _313  and  _315
REMARK  125  A    between atoms: _315  and  _316
REMARK  126  A    between atoms: _315  and  _318
REMARK  127  A    between atoms: _318  and  _319
REMARK  128  A    between atoms: _319  and  _320
REMARK  129  A    between atoms: _323  and  _325
REMARK  130  A    between atoms: _325  and  _326
REMARK  131  A    between atoms: _325  and  _328
REMARK  132  A    between atoms: _328  and  _329
REMARK  133  A    between atoms: _334  and  _335
REMARK  134  A    between atoms: _337  and  _339
REMARK  135  A    between atoms: _339  and  _340
REMARK  136  A    between atoms: _339  and  _342
REMARK  137  A    between atoms: _342  and  _343
REMARK  138  A    between atoms: _348  and  _350
REMARK  139  A    between atoms: _350  and  _351
REMARK  140  A    between atoms: _350  and  _353
REMARK  141  A    between atoms: _353  and  _354
REMARK  142  A    between atoms: _357  and  _359
REMARK  143  A    between atoms: _359  and  _360
REMARK  144  A    between atoms: _359  and  _362
REMARK  145  A    between atoms: _362  and  _363
REMARK  146  A    between atoms: _368  and  _370
REMARK  147  A    between atoms: _370  and  _371
REMARK  148  A    between atoms: _370  and  _373
REMARK  149  A    between atoms: _373  and  _374
REMARK  150  A    between atoms: _384  and  _386
REMARK  151  A    between atoms: _386  and  _387
REMARK  152  A    between atoms: _386  and  _389
REMARK  153  A    between atoms: _389  and  _390
REMARK  154  A    between atoms: _396  and  _398
REMARK  155  A    between atoms: _398  and  _399
REMARK  156  A    between atoms: _398  and  _401
REMARK  157  A    between atoms: _401  and  _402
REMARK  158  A    between atoms: _405  and  _407
REMARK  159  A    between atoms: _407  and  _408
REMARK  160  A    between atoms: _407  and  _410
REMARK  161  A    between atoms: _410  and  _411
REMARK  162  A    between atoms: _414  and  _416
REMARK  163  A    between atoms: _416  and  _417
REMARK  164  A    between atoms: _416  and  _419
REMARK  165  A    between atoms: _419  and  _420
REMARK  166  A    between atoms: _420  and  _421
REMARK  167  A    between atoms: _421  and  _422
REMARK  168  A    between atoms: _431  and  _433
REMARK  169  A    between atoms: _433  and  _434
REMARK  170  A    between atoms: _433  and  _436
REMARK  171  A    between atoms: _436  and  _437
REMARK  172  A    between atoms: _442  and  _444
REMARK  173  A    between atoms: _444  and  _445
REMARK  174  A    between atoms: _444  and  _447
REMARK  175  A    between atoms: _447  and  _448
REMARK  176  A    between atoms: _448  and  _449
REMARK  177  A    between atoms: _449  and  _450
REMARK  178  A    between atoms: _459  and  _461
REMARK  179  A    between atoms: _461  and  _462
REMARK  180  A    between atoms: _465  and  _467
REMARK  181  A    between atoms: _467  and  _468
REMARK  182  A    between atoms: _470  and  _472
REMARK  183  A    between atoms: _472  and  _473
REMARK  184  A    between atoms: _472  and  _475
REMARK  185  A    between atoms: _475  and  _476
REMARK  186  A    between atoms: _486  and  _488
REMARK  187  A    between atoms: _488  and  _489
REMARK  188  A    between atoms: _488  and  _491
REMARK  189  A    between atoms: _491  and  _492
REMARK  190  A    between atoms: _493  and  _495
REMARK  191  A    between atoms: _495  and  _496
REMARK  192  A    between atoms: _499  and  _501
REMARK  193  A    between atoms: _501  and  _502
REMARK  194  A    between atoms: _501  and  _504
REMARK  195  A    between atoms: _504  and  _505
REMARK  196  A    between atoms: _508  and  _510
REMARK  197  A    between atoms: _510  and  _511
REMARK  198  A    between atoms: _510  and  _513
REMARK  199  A    between atoms: _513  and  _514
REMARK  200  A    between atoms: _519  and  _520
REMARK  201  A    between atoms: _522  and  _524
REMARK  202  A    between atoms: _524  and  _525
REMARK  203  A    between atoms: _524  and  _527
REMARK  204  A    between atoms: _527  and  _528
REMARK  205  A    between atoms: _530  and  _532
REMARK  206  A    between atoms: _532  and  _533
REMARK  207  A    between atoms: _532  and  _535
REMARK  208  A    between atoms: _535  and  _536
REMARK  209  A    between atoms: _542  and  _544
REMARK  210  A    between atoms: _544  and  _545
REMARK  211  A    between atoms: _544  and  _547
REMARK  212  A    between atoms: _547  and  _548
REMARK  213  A    between atoms: _551  and  _553
REMARK  214  A    between atoms: _553  and  _554
REMARK  215  A    between atoms: _553  and  _556
REMARK  216  A    between atoms: _556  and  _557
REMARK  217  A    between atoms: _559  and  _561
REMARK  218  A    between atoms: _561  and  _562
REMARK  219  A    between atoms: _561  and  _564
REMARK  220  A    between atoms: _564  and  _565
REMARK  221  A    between atoms: _570  and  _572
REMARK  222  A    between atoms: _572  and  _573
REMARK  223  A    between atoms: _572  and  _575
REMARK  224  A    between atoms: _575  and  _576
REMARK  225  A    between atoms: _581  and  _583
REMARK  226  A    between atoms: _583  and  _584
REMARK  227  A    between atoms: _583  and  _586
REMARK  228  A    between atoms: _586  and  _587
REMARK  229  A    between atoms: _590  and  _592
REMARK  230  A    between atoms: _592  and  _593
REMARK  231  A    between atoms: _592  and  _595
REMARK  232  A    between atoms: _595  and  _596
REMARK  233  A    between atoms: _601  and  _602
REMARK  234  A    between atoms: _604  and  _606
REMARK  235  A    between atoms: _606  and  _607
REMARK  236  A    between atoms: _606  and  _609
REMARK  237  A    between atoms: _609  and  _610
REMARK  238  A    between atoms: _615  and  _616
REMARK  239  A    between atoms: _618  and  _620
REMARK  240  A    between atoms: _620  and  _621
REMARK  241  A    between atoms: _620  and  _623
REMARK  242  A    between atoms: _626  and  _628
REMARK  243  A    between atoms: _628  and  _629
REMARK  244  A    between atoms: _628  and  _631
REMARK  245  A    between atoms: _631  and  _632
REMARK  246  A    between atoms: _637  and  _639
REMARK  247  A    between atoms: _639  and  _640
REMARK  248  A    between atoms: _643  and  _645
REMARK  249  A    between atoms: _645  and  _646
REMARK  250  A    between atoms: _645  and  _648
REMARK  251  A    between atoms: _648  and  _649
REMARK  252  A    between atoms: _649  and  _650
REMARK  253  A    between atoms: _650  and  _651
REMARK  254  A    between atoms: _660  and  _662
REMARK  255  A    between atoms: _662  and  _663
REMARK  256  A    between atoms: _662  and  _665
REMARK  257  A    between atoms: _665  and  _666
REMARK  258  A    between atoms: _669  and  _671
REMARK  259  A    between atoms: _671  and  _672
REMARK  260  A    between atoms: _671  and  _674
REMARK  261  A    between atoms: _674  and  _675
REMARK  262  A    between atoms: _678  and  _680
REMARK  263  A    between atoms: _680  and  _681
REMARK  264  A    between atoms: _680  and  _683
REMARK  265  A    between atoms: _683  and  _684
REMARK                            x       y       z     vdW  Elec       q    Type
REMARK                         _______ _______ _______ _____ _____    ______ ____
ROOT
ATOM      1  C   LEU A   1     -11.164  22.513  18.765  0.00  0.00    +0.238 C 
ATOM      2  O   LEU A   1     -11.636  22.149  19.871  0.00  0.00    -0.274 OA
ATOM      3  N   HIS A   2     -10.087  23.274  18.643  0.00  0.00    -0.298 N 
ATOM      4  H   HIS A   2      -9.776  23.609  17.709  0.00  0.00    +0.150 HD
ENDROOT
BRANCH   1   5
ATOM      5  CA  LEU A   1     -11.851  22.049  17.476  0.00  0.00    +0.145 C 
BRANCH   5   6
ATOM      6  N   LEU A   1     -12.132  23.133  16.573  0.00  0.00    -0.238 NA
ATOM      7  H   LEU A   1     -11.739  23.117  15.610  0.00  0.00    +0.142 HD
ENDBRANCH   5   6
BRANCH   5   8
ATOM      8  CB  LEU A   1     -10.982  21.008  16.760  0.00  0.00    +0.026 C 
BRANCH   8   9
ATOM      9  CG  LEU A   1     -10.420  19.850  17.565  0.00  0.00    +0.002 C 
ATOM     10  CD2 LEU A   1     -11.544  18.967  18.102  0.00  0.00    +0.000 C 
ATOM     11  CD1 LEU A   1      -9.512  18.958  16.727  0.00  0.00    +0.000 C 
ENDBRANCH   8   9
ENDBRANCH   5   8
ENDBRANCH   1   5
BRANCH   3  12
ATOM     12  CA  HIS A   2      -9.341  23.635  19.858  0.00  0.00    +0.143 C 
BRANCH  12  13
ATOM     13  C   HIS A   2     -10.168  24.573  20.750  0.00  0.00    +0.227 C 
ATOM     14  O   HIS A   2     -10.034  24.471  21.957  0.00  0.00    -0.286 OA
ENDBRANCH  12  13
BRANCH  12  15
ATOM     15  CB  HIS A   2      -7.979  24.255  19.549  0.00  0.00    +0.075 C 
BRANCH  15  16
ATOM     16  CG  HIS A   2      -7.130  23.347  18.687  0.00  0.00    +0.082 A 
ATOM     17  ND1 HIS A   2      -7.052  21.990  18.955  0.00  0.00    -0.227 NA
ATOM     18  CE1 HIS A   2      -6.244  21.414  18.064  0.00  0.00    +0.199 A 
ATOM     19  NE2 HIS A   2      -5.803  22.378  17.247  0.00  0.00    -0.221 NA
ATOM     20  CD2 HIS A   2      -6.322  23.581  17.612  0.00  0.00    +0.115 A 
ENDBRANCH  15  16
ENDBRANCH  12  15
ENDBRANCH   3  12
TORSDOF 8
REMARK  Name = ../refined-set-2016/1b9j/1b9j_pocket.pdb
REMARK  265 active torsions:
REMARK  status: ('A' for Active; 'I' for Inactive)
REMARK    1  A    between atoms: _1  and  _3
REMARK    2  A    between atoms: _3  and  _4
REMARK    3  A    between atoms: _3  and  _6
REMARK    4  A    between atoms: _6  and  _7
REMARK    5  A    between atoms: _12  and  _14
REMARK    6  A    between atoms: _14  and  _15
REMARK    7  A    between atoms: _17  and  _19
REMARK    8  A    between atoms: _19  and  _20
REMARK    9  A    between atoms: _19  and  _22
REMARK   10  A    between atoms: _22  and  _23
REMARK   11  A    between atoms: _25  and  _27
REMARK   12  A    between atoms: _27  and  _28
REMARK   13  A    between atoms: _27  and  _30
REMARK   14  A    between atoms: _30  and  _31
REMARK   15  A    between atoms: _31  and  _32
REMARK   16  A    between atoms: _37  and  _39
REMARK   17  A    between atoms: _39  and  _40
REMARK   18  A    between atoms: _39  and  _42
REMARK   19  A    between atoms: _42  and  _43
REMARK   20  A    between atoms: _46  and  _48
REMARK   21  A    between atoms: _48  and  _49
REMARK   22  A    between atoms: _48  and  _51
REMARK   23  A    between atoms: _51  and  _52
REMARK   24  A    between atoms: _52  and  _53
REMARK   25  A    between atoms: _56  and  _58
REMARK   26  A    between atoms: _58  and  _59
REMARK   27  A    between atoms: _61  and  _63
REMARK   28  A    between atoms: _63  and  _64
REMARK   29  A    between atoms: _63  and  _66
REMARK   30  A    between atoms: _70  and  _71
REMARK   31  A    between atoms: _76  and  _78
REMARK   32  A    between atoms: _78  and  _79
REMARK   33  A    between atoms: _78  and  _81
REMARK   34  A    between atoms: _81  and  _82
REMARK   35  A    between atoms: _82  and  _83
REMARK   36  A    between atoms: _86  and  _88
REMARK   37  A    between atoms: _88  and  _89
REMARK   38  A    between atoms: _88  and  _91
REMARK   39  A    between atoms: _91  and  _92
REMARK   40  A    between atoms: _94  and  _96
REMARK   41  A    between atoms: _96  and  _97
REMARK   42  A    between atoms: _96  and  _99
REMARK   43  A    between atoms: _99  and  _100
REMARK   44  A    between atoms: _105  and  _107
REMARK   45  A    between atoms: _107  and  _108
REMARK   46  A    between atoms: _107  and  _110
REMARK   47  A    between atoms: _110  and  _111
REMARK   48  A    between atoms: _111  and  _112
REMARK   49  A    between atoms: _112  and  _113
REMARK   50  A    between atoms: _123  and  _124
REMARK   51  A    between atoms: _129  and  _131
REMARK   52  A    between atoms: _131  and  _132
REMARK   53  A    between atoms: _131  and  _134
REMARK   54  A    between atoms: _134  and  _135
REMARK   55  A    between atoms: _140  and  _141
REMARK   56  A    between atoms: _143  and  _145
REMARK   57  A    between atoms: _145  and  _146
REMARK   58  A    between atoms: _145  and  _148
REMARK   59  A    between atoms: _148  and  _149
REMARK   60  A    between atoms: _154  and  _155
REMARK   61  A    between atoms: _157  and  _159
REMARK   62  A    between atoms: _159  and  _160
REMARK   63  A    between atoms: _159  and  _162
REMARK   64  A    between atoms: _165  and  _167
REMARK   65  A    between atoms: _167  and  _168
REMARK   66  A    between atoms: _167  and  _170
REMARK   67  A    between atoms: _170  and  _171
REMARK   68  A    between atoms: _177  and  _178
REMARK   69  A    between atoms: _183  and  _185
REMARK   70  A    between atoms: _185  and  _186
REMARK   71  A    between atoms: _185  and  _188
REMARK   72  A    between atoms: _188  and  _189
REMARK   73  A    between atoms: _191  and  _193
REMARK   74  A    between atoms: _193  and  _194
REMARK   75  A    between atoms: _193  and  _196
REMARK   76  A    between atoms: _196  and  _197
REMARK   77  A    between atoms: _197  and  _198
REMARK   78  A    between atoms: _201  and  _203
REMARK   79  A    between atoms: _203  and  _204
REMARK   80  A    between atoms: _203  and  _206
REMARK   81  A    between atoms: _206  and  _207
REMARK   82  A    between atoms: _212  and  _213
REMARK   83  A    between atoms: _215  and  _217
REMARK   84  A    between atoms: _217  and  _218
REMARK   85  A    between atoms: _217  and  _220
REMARK   86  A    between atoms: _220  and  _221
REMARK   87  A    between atoms: _226  and  _228
REMARK   88  A    between atoms: _228  and  _229
REMARK   89  A    between atoms: _228  and  _231
REMARK   90  A    between atoms: _231  and  _232
REMARK   91  A    between atoms: _237  and  _239
REMARK   92  A    between atoms: _239  and  _240
REMARK   93  A    between atoms: _239  and  _242
REMARK   94  A    between atoms: _242  and  _243
REMARK   95  A    between atoms: _243  and  _244
REMARK   96  A    between atoms: _246  and  _248
REMARK   97  A    between atoms: _248  and  _249
REMARK   98  A    between atoms: _248  and  _251
REMARK   99  A    between atoms: _251  and  _252
REMARK  100  A    between atoms: _257  and  _258
REMARK  101  A    between atoms: _260  and  _262
REMARK  102  A    between atoms: _262  and  _263
REMARK  103  A    between atoms: _262  and  _265
REMARK  104  A    between atoms: _265  and  _266
REMARK  105  A    between atoms: _269  and  _271
REMARK  106  A    between atoms: _271  and  _272
REMARK  107  A    between atoms: _271  and  _274
REMARK  108  A    between atoms: _274  and  _275
REMARK  109  A    between atoms: _275  and  _492
REMARK  110  A    between atoms: _276  and  _278
REMARK  111  A    between atoms: _278  and  _279
REMARK  112  A    between atoms: _278  and  _281
REMARK  113  A    between atoms: _281  and  _282
REMARK  114  A    between atoms: _285  and  _287
REMARK  115  A    between atoms: _287  and  _288
REMARK  116  A    between atoms: _287  and  _290
REMARK  117  A    between atoms: _290  and  _291
REMARK  118  A    between atoms: _296  and  _297
REMARK  119  A    between atoms: _299  and  _301
REMARK  120  A    between atoms: _301  and  _302
REMARK  121  A    between atoms: _301  and  _304
REMARK  122  A    between atoms: _304  and  _305
REMARK  123  A    between atoms: _310  and  _311
REMARK  124  A    between atoms: _313  and  _315
REMARK  125  A    between atoms: _315  and  _316
REMARK  126  A    between atoms: _315  and  _318
REMARK  127  A    between atoms: _318  and  _319
REMARK  128  A    between atoms: _319  and  _320
REMARK  129  A    between atoms: _323  and  _325
REMARK  130  A    between atoms: _325  and  _326
REMARK  131  A    between atoms: _325  and  _328
REMARK  132  A    between atoms: _328  and  _329
REMARK  133  A    between atoms: _334  and  _335
REMARK  134  A    between atoms: _337  and  _339
REMARK  135  A    between atoms: _339  and  _340
REMARK  136  A    between atoms: _339  and  _342
REMARK  137  A    between atoms: _342  and  _343
REMARK  138  A    between atoms: _348  and  _350
REMARK  139  A    between atoms: _350  and  _351
REMARK  140  A    between atoms: _350  and  _353
REMARK  141  A    between atoms: _353  and  _354
REMARK  142  A    between atoms: _357  and  _359
REMARK  143  A    between atoms: _359  and  _360
REMARK  144  A    between atoms: _359  and  _362
REMARK  145  A    between atoms: _362  and  _363
REMARK  146  A    between atoms: _368  and  _370
REMARK  147  A    between atoms: _370  and  _371
REMARK  148  A    between atoms: _370  and  _373
REMARK  149  A    between atoms: _373  and  _374
REMARK  150  A    between atoms: _384  and  _386
REMARK  151  A    between atoms: _386  and  _387
REMARK  152  A    between atoms: _386  and  _389
REMARK  153  A    between atoms: _389  and  _390
REMARK  154  A    between atoms: _396  and  _398
REMARK  155  A    between atoms: _398  and  _399
REMARK  156  A    between atoms: _398  and  _401
REMARK  157  A    between atoms: _401  and  _402
REMARK  158  A    between atoms: _405  and  _407
REMARK  159  A    between atoms: _407  and  _408
REMARK  160  A    between atoms: _407  and  _410
REMARK  161  A    between atoms: _410  and  _411
REMARK  162  A    between atoms: _414  and  _416
REMARK  163  A    between atoms: _416  and  _417
REMARK  164  A    between atoms: _416  and  _419
REMARK  165  A    between atoms: _419  and  _420
REMARK  166  A    between atoms: _420  and  _421
REMARK  167  A    between atoms: _421  and  _422
REMARK  168  A    between atoms: _431  and  _433
REMARK  169  A    between atoms: _433  and  _434
REMARK  170  A    between atoms: _433  and  _436
REMARK  171  A    between atoms: _436  and  _437
REMARK  172  A    between atoms: _442  and  _444
REMARK  173  A    between atoms: _444  and  _445
REMARK  174  A    between atoms: _444  and  _447
REMARK  175  A    between atoms: _447  and  _448
REMARK  176  A    between atoms: _448  and  _449
REMARK  177  A    between atoms: _449  and  _450
REMARK  178  A    between atoms: _459  and  _461
REMARK  179  A    between atoms: _461  and  _462
REMARK  180  A    between atoms: _465  and  _467
REMARK  181  A    between atoms: _467  and  _468
REMARK  182  A    between atoms: _470  and  _472
REMARK  183  A    between atoms: _472  and  _473
REMARK  184  A    between atoms: _472  and  _475
REMARK  185  A    between atoms: _475  and  _476
REMARK  186  A    between atoms: _486  and  _488
REMARK  187  A    between atoms: _488  and  _489
REMARK  188  A    between atoms: _488  and  _491
REMARK  189  A    between atoms: _491  and  _492
REMARK  190  A    between atoms: _493  and  _495
REMARK  191  A    between atoms: _495  and  _496
REMARK  192  A    between atoms: _499  and  _501
REMARK  193  A    between atoms: _501  and  _502
REMARK  194  A    between atoms: _501  and  _504
REMARK  195  A    between atoms: _504  and  _505
REMARK  196  A    between atoms: _508  and  _510
REMARK  197  A    between atoms: _510  and  _511
REMARK  198  A    between atoms: _510  and  _513
REMARK  199  A    between atoms: _513  and  _514
REMARK  200  A    between atoms: _519  and  _520
REMARK  201  A    between atoms: _522  and  _524
REMARK  202  A    between atoms: _524  and  _525
REMARK  203  A    between atoms: _524  and  _527
REMARK  204  A    between atoms: _527  and  _528
REMARK  205  A    between atoms: _530  and  _532
REMARK  206  A    between atoms: _532  and  _533
REMARK  207  A    between atoms: _532  and  _535
REMARK  208  A    between atoms: _535  and  _536
REMARK  209  A    between atoms: _542  and  _544
REMARK  210  A    between atoms: _544  and  _545
REMARK  211  A    between atoms: _544  and  _547
REMARK  212  A    between atoms: _547  and  _548
REMARK  213  A    between atoms: _551  and  _553
REMARK  214  A    between atoms: _553  and  _554
REMARK  215  A    between atoms: _553  and  _556
REMARK  216  A    between atoms: _556  and  _557
REMARK  217  A    between atoms: _559  and  _561
REMARK  218  A    between atoms: _561  and  _562
REMARK  219  A    between atoms: _561  and  _564
REMARK  220  A    between atoms: _564  and  _565
REMARK  221  A    between atoms: _570  and  _572
REMARK  222  A    between atoms: _572  and  _573
REMARK  223  A    between atoms: _572  and  _575
REMARK  224  A    between atoms: _575  and  _576
REMARK  225  A    between atoms: _581  and  _583
REMARK  226  A    between atoms: _583  and  _584
REMARK  227  A    between atoms: _583  and  _586
REMARK  228  A    between atoms: _586  and  _587
REMARK  229  A    between atoms: _590  and  _592
REMARK  230  A    between atoms: _592  and  _593
REMARK  231  A    between atoms: _592  and  _595
REMARK  232  A    between atoms: _595  and  _596
REMARK  233  A    between atoms: _601  and  _602
REMARK  234  A    between atoms: _604  and  _606
REMARK  235  A    between atoms: _606  and  _607
REMARK  236  A    between atoms: _606  and  _609
REMARK  237  A    between atoms: _609  and  _610
REMARK  238  A    between atoms: _615  and  _616
REMARK  239  A    between atoms: _618  and  _620
REMARK  240  A    between atoms: _620  and  _621
REMARK  241  A    between atoms: _620  and  _623
REMARK  242  A    between atoms: _626  and  _628
REMARK  243  A    between atoms: _628  and  _629
REMARK  244  A    between atoms: _628  and  _631
REMARK  245  A    between atoms: _631  and  _632
REMARK  246  A    between atoms: _637  and  _639
REMARK  247  A    between atoms: _639  and  _640
REMARK  248  A    between atoms: _643  and  _645
REMARK  249  A    between atoms: _645  and  _646
REMARK  250  A    between atoms: _645  and  _648
REMARK  251  A    between atoms: _648  and  _649
REMARK  252  A    between atoms: _649  and  _650
REMARK  253  A    between atoms: _650  and  _651
REMARK  254  A    between atoms: _660  and  _662
REMARK  255  A    between atoms: _662  and  _663
REMARK  256  A    between atoms: _662  and  _665
REMARK  257  A    between atoms: _665  and  _666
REMARK  258  A    between atoms: _669  and  _671
REMARK  259  A    between atoms: _671  and  _672
REMARK  260  A    between atoms: _671  and  _674
REMARK  261  A    between atoms: _674  and  _675
REMARK  262  A    between atoms: _678  and  _680
REMARK  263  A    between atoms: _680  and  _681
REMARK  264  A    between atoms: _680  and  _683
REMARK  265  A    between atoms: _683  and  _684
REMARK                            x       y       z     vdW  Elec       q    Type
REMARK                         _______ _______ _______ _____ _____    ______ ____
ROOT
ATOM      1  CG  TRP A   1       0.319  27.193  12.905  0.00  0.00    -0.002 A 
ATOM      2  CD2 TRP A   1       0.345  26.021  13.720  0.00  0.00    +0.013 A 
ATOM      3  CE3 TRP A   1      -0.376  25.615  14.851  0.00  0.00    +0.001 A 
ATOM      4  CZ3 TRP A   1      -0.073  24.377  15.399  0.00  0.00    +0.000 A 
ATOM      5  CH2 TRP A   1       0.930  23.537  14.869  0.00  0.00    +0.001 A 
ATOM      6  CZ2 TRP A   1       1.628  23.922  13.748  0.00  0.00    +0.017 A 
ATOM      7  CE2 TRP A   1       1.331  25.150  13.189  0.00  0.00    +0.056 A 
ATOM      8  NE1 TRP A   1       1.868  25.798  12.097  0.00  0.00    -0.352 N 
ATOM      9  HE1 TRP A   1       2.629  25.422  11.497  0.00  0.00    +0.166 HD
ATOM     10  CD1 TRP A   1       1.261  26.995  11.919  0.00  0.00    +0.068 A 
ENDROOT
BRANCH   1  11
ATOM     11  CB  TRP A   1      -0.604  28.375  12.995  0.00  0.00    +0.053 C 
BRANCH  11  12
ATOM     12  CA  TRP A   1      -0.535  29.242  14.254  0.00  0.00    +0.137 C 
BRANCH  12  13
ATOM     13  N   TRP A   1      -1.608  30.241  14.156  0.00  0.00    -0.239 NA
ATOM     14  H   TRP A   1      -2.386  30.081  13.484  0.00  0.00    +0.142 HD
ENDBRANCH  12  13
BRANCH  12  15
ATOM     15  C   TRP A   1       0.889  29.754  14.403  0.00  0.00    +0.224 C 
ATOM     16  O   TRP A   1       1.614  29.338  15.321  0.00  0.00    -0.287 OA
ENDBRANCH  12  15
ENDBRANCH  11  12
ENDBRANCH   1  11
TORSDOF 4
REMARK  Name = ../refined-set-2016/1b9j/1b9j_pocket.pdb
REMARK  265 active torsions:
REMARK  status: ('A' for Active; 'I' for Inactive)
REMARK    1  A    between atoms: _1  and  _3
REMARK    2  A    between atoms: _3  and  _4
REMARK    3  A    between atoms: _3  and  _6
REMARK    4  A    between atoms: _6  and  _7
REMARK    5  A    between atoms: _12  and  _14
REMARK    6  A    between atoms: _14  and  _15
REMARK    7  A    between atoms: _17  and  _19
REMARK    8  A    between atoms: _19  and  _20
REMARK    9  A    between atoms: _19  and  _22
REMARK   10  A    between atoms: _22  and  _23
REMARK   11  A    between atoms: _25  and  _27
REMARK   12  A    between atoms: _27  and  _28
REMARK   13  A    between atoms: _27  and  _30
REMARK   14  A    between atoms: _30  and  _31
REMARK   15  A    between atoms: _31  and  _32
REMARK   16  A    between atoms: _37  and  _39
REMARK   17  A    between atoms: _39  and  _40
REMARK   18  A    between atoms: _39  and  _42
REMARK   19  A    between atoms: _42  and  _43
REMARK   20  A    between atoms: _46  and  _48
REMARK   21  A    between atoms: _48  and  _49
REMARK   22  A    between atoms: _48  and  _51
REMARK   23  A    between atoms: _51  and  _52
REMARK   24  A    between atoms: _52  and  _53
REMARK   25  A    between atoms: _56  and  _58
REMARK   26  A    between atoms: _58  and  _59
REMARK   27  A    between atoms: _61  and  _63
REMARK   28  A    between atoms: _63  and  _64
REMARK   29  A    between atoms: _63  and  _66
REMARK   30  A    between atoms: _70  and  _71
REMARK   31  A    between atoms: _76  and  _78
REMARK   32  A    between atoms: _78  and  _79
REMARK   33  A    between atoms: _78  and  _81
REMARK   34  A    between atoms: _81  and  _82
REMARK   35  A    between atoms: _82  and  _83
REMARK   36  A    between atoms: _86  and  _88
REMARK   37  A    between atoms: _88  and  _89
REMARK   38  A    between atoms: _88  and  _91
REMARK   39  A    between atoms: _91  and  _92
REMARK   40  A    between atoms: _94  and  _96
REMARK   41  A    between atoms: _96  and  _97
REMARK   42  A    between atoms: _96  and  _99
REMARK   43  A    between atoms: _99  and  _100
REMARK   44  A    between atoms: _105  and  _107
REMARK   45  A    between atoms: _107  and  _108
REMARK   46  A    between atoms: _107  and  _110
REMARK   47  A    between atoms: _110  and  _111
REMARK   48  A    between atoms: _111  and  _112
REMARK   49  A    between atoms: _112  and  _113
REMARK   50  A    between atoms: _123  and  _124
REMARK   51  A    between atoms: _129  and  _131
REMARK   52  A    between atoms: _131  and  _132
REMARK   53  A    between atoms: _131  and  _134
REMARK   54  A    between atoms: _134  and  _135
REMARK   55  A    between atoms: _140  and  _141
REMARK   56  A    between atoms: _143  and  _145
REMARK   57  A    between atoms: _145  and  _146
REMARK   58  A    between atoms: _145  and  _148
REMARK   59  A    between atoms: _148  and  _149
REMARK   60  A    between atoms: _154  and  _155
REMARK   61  A    between atoms: _157  and  _159
REMARK   62  A    between atoms: _159  and  _160
REMARK   63  A    between atoms: _159  and  _162
REMARK   64  A    between atoms: _165  and  _167
REMARK   65  A    between atoms: _167  and  _168
REMARK   66  A    between atoms: _167  and  _170
REMARK   67  A    between atoms: _170  and  _171
REMARK   68  A    between atoms: _177  and  _178
REMARK   69  A    between atoms: _183  and  _185
REMARK   70  A    between atoms: _185  and  _186
REMARK   71  A    between atoms: _185  and  _188
REMARK   72  A    between atoms: _188  and  _189
REMARK   73  A    between atoms: _191  and  _193
REMARK   74  A    between atoms: _193  and  _194
REMARK   75  A    between atoms: _193  and  _196
REMARK   76  A    between atoms: _196  and  _197
REMARK   77  A    between atoms: _197  and  _198
REMARK   78  A    between atoms: _201  and  _203
REMARK   79  A    between atoms: _203  and  _204
REMARK   80  A    between atoms: _203  and  _206
REMARK   81  A    between atoms: _206  and  _207
REMARK   82  A    between atoms: _212  and  _213
REMARK   83  A    between atoms: _215  and  _217
REMARK   84  A    between atoms: _217  and  _218
REMARK   85  A    between atoms: _217  and  _220
REMARK   86  A    between atoms: _220  and  _221
REMARK   87  A    between atoms: _226  and  _228
REMARK   88  A    between atoms: _228  and  _229
REMARK   89  A    between atoms: _228  and  _231
REMARK   90  A    between atoms: _231  and  _232
REMARK   91  A    between atoms: _237  and  _239
REMARK   92  A    between atoms: _239  and  _240
REMARK   93  A    between atoms: _239  and  _242
REMARK   94  A    between atoms: _242  and  _243
REMARK   95  A    between atoms: _243  and  _244
REMARK   96  A    between atoms: _246  and  _248
REMARK   97  A    between atoms: _248  and  _249
REMARK   98  A    between atoms: _248  and  _251
REMARK   99  A    between atoms: _251  and  _252
REMARK  100  A    between atoms: _257  and  _258
REMARK  101  A    between atoms: _260  and  _262
REMARK  102  A    between atoms: _262  and  _263
REMARK  103  A    between atoms: _262  and  _265
REMARK  104  A    between atoms: _265  and  _266
REMARK  105  A    between atoms: _269  and  _271
REMARK  106  A    between atoms: _271  and  _272
REMARK  107  A    between atoms: _271  and  _274
REMARK  108  A    between atoms: _274  and  _275
REMARK  109  A    between atoms: _275  and  _492
REMARK  110  A    between atoms: _276  and  _278
REMARK  111  A    between atoms: _278  and  _279
REMARK  112  A    between atoms: _278  and  _281
REMARK  113  A    between atoms: _281  and  _282
REMARK  114  A    between atoms: _285  and  _287
REMARK  115  A    between atoms: _287  and  _288
REMARK  116  A    between atoms: _287  and  _290
REMARK  117  A    between atoms: _290  and  _291
REMARK  118  A    between atoms: _296  and  _297
REMARK  119  A    between atoms: _299  and  _301
REMARK  120  A    between atoms: _301  and  _302
REMARK  121  A    between atoms: _301  and  _304
REMARK  122  A    between atoms: _304  and  _305
REMARK  123  A    between atoms: _310  and  _311
REMARK  124  A    between atoms: _313  and  _315
REMARK  125  A    between atoms: _315  and  _316
REMARK  126  A    between atoms: _315  and  _318
REMARK  127  A    between atoms: _318  and  _319
REMARK  128  A    between atoms: _319  and  _320
REMARK  129  A    between atoms: _323  and  _325
REMARK  130  A    between atoms: _325  and  _326
REMARK  131  A    between atoms: _325  and  _328
REMARK  132  A    between atoms: _328  and  _329
REMARK  133  A    between atoms: _334  and  _335
REMARK  134  A    between atoms: _337  and  _339
REMARK  135  A    between atoms: _339  and  _340
REMARK  136  A    between atoms: _339  and  _342
REMARK  137  A    between atoms: _342  and  _343
REMARK  138  A    between atoms: _348  and  _350
REMARK  139  A    between atoms: _350  and  _351
REMARK  140  A    between atoms: _350  and  _353
REMARK  141  A    between atoms: _353  and  _354
REMARK  142  A    between atoms: _357  and  _359
REMARK  143  A    between atoms: _359  and  _360
REMARK  144  A    between atoms: _359  and  _362
REMARK  145  A    between atoms: _362  and  _363
REMARK  146  A    between atoms: _368  and  _370
REMARK  147  A    between atoms: _370  and  _371
REMARK  148  A    between atoms: _370  and  _373
REMARK  149  A    between atoms: _373  and  _374
REMARK  150  A    between atoms: _384  and  _386
REMARK  151  A    between atoms: _386  and  _387
REMARK  152  A    between atoms: _386  and  _389
REMARK  153  A    between atoms: _389  and  _390
REMARK  154  A    between atoms: _396  and  _398
REMARK  155  A    between atoms: _398  and  _399
REMARK  156  A    between atoms: _398  and  _401
REMARK  157  A    between atoms: _401  and  _402
REMARK  158  A    between atoms: _405  and  _407
REMARK  159  A    between atoms: _407  and  _408
REMARK  160  A    between atoms: _407  and  _410
REMARK  161  A    between atoms: _410  and  _411
REMARK  162  A    between atoms: _414  and  _416
REMARK  163  A    between atoms: _416  and  _417
REMARK  164  A    between atoms: _416  and  _419
REMARK  165  A    between atoms: _419  and  _420
REMARK  166  A    between atoms: _420  and  _421
REMARK  167  A    between atoms: _421  and  _422
REMARK  168  A    between atoms: _431  and  _433
REMARK  169  A    between atoms: _433  and  _434
REMARK  170  A    between atoms: _433  and  _436
REMARK  171  A    between atoms: _436  and  _437
REMARK  172  A    between atoms: _442  and  _444
REMARK  173  A    between atoms: _444  and  _445
REMARK  174  A    between atoms: _444  and  _447
REMARK  175  A    between atoms: _447  and  _448
REMARK  176  A    between atoms: _448  and  _449
REMARK  177  A    between atoms: _449  and  _450
REMARK  178  A    between atoms: _459  and  _461
REMARK  179  A    between atoms: _461  and  _462
REMARK  180  A    between atoms: _465  and  _467
REMARK  181  A    between atoms: _467  and  _468
REMARK  182  A    between atoms: _470  and  _472
REMARK  183  A    between atoms: _472  and  _473
REMARK  184  A    between atoms: _472  and  _475
REMARK  185  A    between atoms: _475  and  _476
REMARK  186  A    between atoms: _486  and  _488
REMARK  187  A    between atoms: _488  and  _489
REMARK  188  A    between atoms: _488  and  _491
REMARK  189  A    between atoms: _491  and  _492
REMARK  190  A    between atoms: _493  and  _495
REMARK  191  A    between atoms: _495  and  _496
REMARK  192  A    between atoms: _499  and  _501
REMARK  193  A    between atoms: _501  and  _502
REMARK  194  A    between atoms: _501  and  _504
REMARK  195  A    between atoms: _504  and  _505
REMARK  196  A    between atoms: _508  and  _510
REMARK  197  A    between atoms: _510  and  _511
REMARK  198  A    between atoms: _510  and  _513
REMARK  199  A    between atoms: _513  and  _514
REMARK  200  A    between atoms: _519  and  _520
REMARK  201  A    between atoms: _522  and  _524
REMARK  202  A    between atoms: _524  and  _525
REMARK  203  A    between atoms: _524  and  _527
REMARK  204  A    between atoms: _527  and  _528
REMARK  205  A    between atoms: _530  and  _532
REMARK  206  A    between atoms: _532  and  _533
REMARK  207  A    between atoms: _532  and  _535
REMARK  208  A    between atoms: _535  and  _536
REMARK  209  A    between atoms: _542  and  _544
REMARK  210  A    between atoms: _544  and  _545
REMARK  211  A    between atoms: _544  and  _547
REMARK  212  A    between atoms: _547  and  _548
REMARK  213  A    between atoms: _551  and  _553
REMARK  214  A    between atoms: _553  and  _554
REMARK  215  A    between atoms: _553  and  _556
REMARK  216  A    between atoms: _556  and  _557
REMARK  217  A    between atoms: _559  and  _561
REMARK  218  A    between atoms: _561  and  _562
REMARK  219  A    between atoms: _561  and  _564
REMARK  220  A    between atoms: _564  and  _565
REMARK  221  A    between atoms: _570  and  _572
REMARK  222  A    between atoms: _572  and  _573
REMARK  223  A    between atoms: _572  and  _575
REMARK  224  A    between atoms: _575  and  _576
REMARK  225  A    between atoms: _581  and  _583
REMARK  226  A    between atoms: _583  and  _584
REMARK  227  A    between atoms: _583  and  _586
REMARK  228  A    between atoms: _586  and  _587
REMARK  229  A    between atoms: _590  and  _592
REMARK  230  A    between atoms: _592  and  _593
REMARK  231  A    between atoms: _592  and  _595
REMARK  232  A    between atoms: _595  and  _596
REMARK  233  A    between atoms: _601  and  _602
REMARK  234  A    between atoms: _604  and  _606
REMARK  235  A    between atoms: _606  and  _607
REMARK  236  A    between atoms: _606  and  _609
REMARK  237  A    between atoms: _609  and  _610
REMARK  238  A    between atoms: _615  and  _616
REMARK  239  A    between atoms: _618  and  _620
REMARK  240  A    between atoms: _620  and  _621
REMARK  241  A    between atoms: _620  and  _623
REMARK  242  A    between atoms: _626  and  _628
REMARK  243  A    between atoms: _628  and  _629
REMARK  244  A    between atoms: _628  and  _631
REMARK  245  A    between atoms: _631  and  _632
REMARK  246  A    between atoms: _637  and  _639
REMARK  247  A    between atoms: _639  and  _640
REMARK  248  A    between atoms: _643  and  _645
REMARK  249  A    between atoms: _645  and  _646
REMARK  250  A    between atoms: _645  and  _648
REMARK  251  A    between atoms: _648  and  _649
REMARK  252  A    between atoms: _649  and  _650
REMARK  253  A    between atoms: _650  and  _651
REMARK  254  A    between atoms: _660  and  _662
REMARK  255  A    between atoms: _662  and  _663
REMARK  256  A    between atoms: _662  and  _665
REMARK  257  A    between atoms: _665  and  _666
REMARK  258  A    between atoms: _669  and  _671
REMARK  259  A    between atoms: _671  and  _672
REMARK  260  A    between atoms: _671  and  _674
REMARK  261  A    between atoms: _674  and  _675
REMARK  262  A    between atoms: _678  and  _680
REMARK  263  A    between atoms: _680  and  _681
REMARK  264  A    between atoms: _680  and  _683
REMARK  265  A    between atoms: _683  and  _684
REMARK                            x       y       z     vdW  Elec       q    Type
REMARK                         _______ _______ _______ _____ _____    ______ ____
ROOT
ATOM      1  CA  LEU A   2       4.395  28.562  18.123  0.00  0.00    +0.149 C 
ENDROOT
BRANCH   1   4
ATOM      2  C   PHE A   1       2.503  29.793  19.003  0.00  0.00    +0.239 C 
ATOM      3  O   PHE A   1       2.912  29.579  20.160  0.00  0.00    -0.274 OA
ATOM      4  N   LEU A   2       3.171  29.307  17.926  0.00  0.00    -0.297 N 
ATOM      5  H   LEU A   2       2.805  29.469  16.966  0.00  0.00    +0.150 HD
BRANCH   2   6
ATOM      6  CA  PHE A   1       1.217  30.563  18.765  0.00  0.00    +0.149 C 
BRANCH   6   7
ATOM      7  N   PHE A   1       1.381  31.588  17.738  0.00  0.00    -0.238 NA
ATOM      8  H   PHE A   1       0.694  31.599  16.957  0.00  0.00    +0.142 HD
ENDBRANCH   6   7
BRANCH   6   9
ATOM      9  CB  PHE A   1       0.095  29.638  18.268  0.00  0.00    +0.053 C 
BRANCH   9  10
ATOM     10  CG  PHE A   1      -0.176  28.387  19.073  0.00  0.00    -0.020 A 
ATOM     11  CD2 PHE A   1      -0.715  28.471  20.347  0.00  0.00    -0.004 A 
ATOM     12  CE2 PHE A   1      -0.969  27.295  21.054  0.00  0.00    -0.000 A 
ATOM     13  CZ  PHE A   1      -0.684  26.080  20.489  0.00  0.00    -0.000 A 
ATOM     14  CE1 PHE A   1      -0.121  25.971  19.217  0.00  0.00    -0.000 A 
ATOM     15  CD1 PHE A   1       0.102  27.144  18.514  0.00  0.00    -0.004 A 
ENDBRANCH   9  10
ENDBRANCH   6   9
ENDBRANCH   2   6
ENDBRANCH   1   4
BRANCH   1  16
ATOM     16  C   LEU A   2       5.493  29.482  18.683  0.00  0.00    +0.241 C 
ATOM     17  O   LEU A   2       6.263  29.059  19.568  0.00  0.00    -0.273 OA
ATOM     18  N   ASP A   3       5.527  30.717  18.188  0.00  0.00    -0.298 N 
ATOM     19  H   ASP A   3       4.862  30.995  17.438  0.00  0.00    +0.150 HD
BRANCH  18  20
ATOM     20  CA  ASP A   3       6.501  31.685  18.700  0.00  0.00    +0.148 C 
BRANCH  20  21
ATOM     21  C   ASP A   3       6.284  31.922  20.191  0.00  0.00    +0.227 C 
ATOM     22  O   ASP A   3       7.245  31.944  20.954  0.00  0.00    -0.286 OA
ENDBRANCH  20  21
BRANCH  20  23
ATOM     23  CB  ASP A   3       6.349  32.991  17.921  0.00  0.00    +0.142 C 
BRANCH  23  24
ATOM     24  CG  ASP A   3       7.146  33.084  16.646  0.00  0.00    +0.367 C 
ATOM     25  OD2 ASP A   3       7.910  32.134  16.352  0.00  0.00    -0.246 OA
ATOM     26  OD1 ASP A   3       7.031  34.112  15.911  0.00  0.00    -0.246 OA
ENDBRANCH  23  24
ENDBRANCH  20  23
ENDBRANCH  18  20
ENDBRANCH   1  16
BRANCH   1  27
ATOM     27  CB  LEU A   2       4.838  27.918  16.800  0.00  0.00    +0.029 C 
BRANCH  27  28
ATOM     28  CG  LEU A   2       3.815  26.944  16.169  0.00  0.00    +0.002 C 
ATOM     29  CD2 LEU A   2       3.454  25.812  17.125  0.00  0.00    +0.000 C 
ATOM     30  CD1 LEU A   2       4.377  26.444  14.844  0.00  0.00    +0.000 C 
ENDBRANCH  27  28
ENDBRANCH   1  27
TORSDOF 12
REMARK  Name = ../refined-set-2016/1b9j/1b9j_pocket.pdb
REMARK  265 active torsions:
REMARK  status: ('A' for Active; 'I' for Inactive)
REMARK    1  A    between atoms: _1  and  _3
REMARK    2  A    between atoms: _3  and  _4
REMARK    3  A    between atoms: _3  and  _6
REMARK    4  A    between atoms: _6  and  _7
REMARK    5  A    between atoms: _12  and  _14
REMARK    6  A    between atoms: _14  and  _15
REMARK    7  A    between atoms: _17  and  _19
REMARK    8  A    between atoms: _19  and  _20
REMARK    9  A    between atoms: _19  and  _22
REMARK   10  A    between atoms: _22  and  _23
REMARK   11  A    between atoms: _25  and  _27
REMARK   12  A    between atoms: _27  and  _28
REMARK   13  A    between atoms: _27  and  _30
REMARK   14  A    between atoms: _30  and  _31
REMARK   15  A    between atoms: _31  and  _32
REMARK   16  A    between atoms: _37  and  _39
REMARK   17  A    between atoms: _39  and  _40
REMARK   18  A    between atoms: _39  and  _42
REMARK   19  A    between atoms: _42  and  _43
REMARK   20  A    between atoms: _46  and  _48
REMARK   21  A    between atoms: _48  and  _49
REMARK   22  A    between atoms: _48  and  _51
REMARK   23  A    between atoms: _51  and  _52
REMARK   24  A    between atoms: _52  and  _53
REMARK   25  A    between atoms: _56  and  _58
REMARK   26  A    between atoms: _58  and  _59
REMARK   27  A    between atoms: _61  and  _63
REMARK   28  A    between atoms: _63  and  _64
REMARK   29  A    between atoms: _63  and  _66
REMARK   30  A    between atoms: _70  and  _71
REMARK   31  A    between atoms: _76  and  _78
REMARK   32  A    between atoms: _78  and  _79
REMARK   33  A    between atoms: _78  and  _81
REMARK   34  A    between atoms: _81  and  _82
REMARK   35  A    between atoms: _82  and  _83
REMARK   36  A    between atoms: _86  and  _88
REMARK   37  A    between atoms: _88  and  _89
REMARK   38  A    between atoms: _88  and  _91
REMARK   39  A    between atoms: _91  and  _92
REMARK   40  A    between atoms: _94  and  _96
REMARK   41  A    between atoms: _96  and  _97
REMARK   42  A    between atoms: _96  and  _99
REMARK   43  A    between atoms: _99  and  _100
REMARK   44  A    between atoms: _105  and  _107
REMARK   45  A    between atoms: _107  and  _108
REMARK   46  A    between atoms: _107  and  _110
REMARK   47  A    between atoms: _110  and  _111
REMARK   48  A    between atoms: _111  and  _112
REMARK   49  A    between atoms: _112  and  _113
REMARK   50  A    between atoms: _123  and  _124
REMARK   51  A    between atoms: _129  and  _131
REMARK   52  A    between atoms: _131  and  _132
REMARK   53  A    between atoms: _131  and  _134
REMARK   54  A    between atoms: _134  and  _135
REMARK   55  A    between atoms: _140  and  _141
REMARK   56  A    between atoms: _143  and  _145
REMARK   57  A    between atoms: _145  and  _146
REMARK   58  A    between atoms: _145  and  _148
REMARK   59  A    between atoms: _148  and  _149
REMARK   60  A    between atoms: _154  and  _155
REMARK   61  A    between atoms: _157  and  _159
REMARK   62  A    between atoms: _159  and  _160
REMARK   63  A    between atoms: _159  and  _162
REMARK   64  A    between atoms: _165  and  _167
REMARK   65  A    between atoms: _167  and  _168
REMARK   66  A    between atoms: _167  and  _170
REMARK   67  A    between atoms: _170  and  _171
REMARK   68  A    between atoms: _177  and  _178
REMARK   69  A    between atoms: _183  and  _185
REMARK   70  A    between atoms: _185  and  _186
REMARK   71  A    between atoms: _185  and  _188
REMARK   72  A    between atoms: _188  and  _189
REMARK   73  A    between atoms: _191  and  _193
REMARK   74  A    between atoms: _193  and  _194
REMARK   75  A    between atoms: _193  and  _196
REMARK   76  A    between atoms: _196  and  _197
REMARK   77  A    between atoms: _197  and  _198
REMARK   78  A    between atoms: _201  and  _203
REMARK   79  A    between atoms: _203  and  _204
REMARK   80  A    between atoms: _203  and  _206
REMARK   81  A    between atoms: _206  and  _207
REMARK   82  A    between atoms: _212  and  _213
REMARK   83  A    between atoms: _215  and  _217
REMARK   84  A    between atoms: _217  and  _218
REMARK   85  A    between atoms: _217  and  _220
REMARK   86  A    between atoms: _220  and  _221
REMARK   87  A    between atoms: _226  and  _228
REMARK   88  A    between atoms: _228  and  _229
REMARK   89  A    between atoms: _228  and  _231
REMARK   90  A    between atoms: _231  and  _232
REMARK   91  A    between atoms: _237  and  _239
REMARK   92  A    between atoms: _239  and  _240
REMARK   93  A    between atoms: _239  and  _242
REMARK   94  A    between atoms: _242  and  _243
REMARK   95  A    between atoms: _243  and  _244
REMARK   96  A    between atoms: _246  and  _248
REMARK   97  A    between atoms: _248  and  _249
REMARK   98  A    between atoms: _248  and  _251
REMARK   99  A    between atoms: _251  and  _252
REMARK  100  A    between atoms: _257  and  _258
REMARK  101  A    between atoms: _260  and  _262
REMARK  102  A    between atoms: _262  and  _263
REMARK  103  A    between atoms: _262  and  _265
REMARK  104  A    between atoms: _265  and  _266
REMARK  105  A    between atoms: _269  and  _271
REMARK  106  A    between atoms: _271  and  _272
REMARK  107  A    between atoms: _271  and  _274
REMARK  108  A    between atoms: _274  and  _275
REMARK  109  A    between atoms: _275  and  _492
REMARK  110  A    between atoms: _276  and  _278
REMARK  111  A    between atoms: _278  and  _279
REMARK  112  A    between atoms: _278  and  _281
REMARK  113  A    between atoms: _281  and  _282
REMARK  114  A    between atoms: _285  and  _287
REMARK  115  A    between atoms: _287  and  _288
REMARK  116  A    between atoms: _287  and  _290
REMARK  117  A    between atoms: _290  and  _291
REMARK  118  A    between atoms: _296  and  _297
REMARK  119  A    between atoms: _299  and  _301
REMARK  120  A    between atoms: _301  and  _302
REMARK  121  A    between atoms: _301  and  _304
REMARK  122  A    between atoms: _304  and  _305
REMARK  123  A    between atoms: _310  and  _311
REMARK  124  A    between atoms: _313  and  _315
REMARK  125  A    between atoms: _315  and  _316
REMARK  126  A    between atoms: _315  and  _318
REMARK  127  A    between atoms: _318  and  _319
REMARK  128  A    between atoms: _319  and  _320
REMARK  129  A    between atoms: _323  and  _325
REMARK  130  A    between atoms: _325  and  _326
REMARK  131  A    between atoms: _325  and  _328
REMARK  132  A    between atoms: _328  and  _329
REMARK  133  A    between atoms: _334  and  _335
REMARK  134  A    between atoms: _337  and  _339
REMARK  135  A    between atoms: _339  and  _340
REMARK  136  A    between atoms: _339  and  _342
REMARK  137  A    between atoms: _342  and  _343
REMARK  138  A    between atoms: _348  and  _350
REMARK  139  A    between atoms: _350  and  _351
REMARK  140  A    between atoms: _350  and  _353
REMARK  141  A    between atoms: _353  and  _354
REMARK  142  A    between atoms: _357  and  _359
REMARK  143  A    between atoms: _359  and  _360
REMARK  144  A    between atoms: _359  and  _362
REMARK  145  A    between atoms: _362  and  _363
REMARK  146  A    between atoms: _368  and  _370
REMARK  147  A    between atoms: _370  and  _371
REMARK  148  A    between atoms: _370  and  _373
REMARK  149  A    between atoms: _373  and  _374
REMARK  150  A    between atoms: _384  and  _386
REMARK  151  A    between atoms: _386  and  _387
REMARK  152  A    between atoms: _386  and  _389
REMARK  153  A    between atoms: _389  and  _390
REMARK  154  A    between atoms: _396  and  _398
REMARK  155  A    between atoms: _398  and  _399
REMARK  156  A    between atoms: _398  and  _401
REMARK  157  A    between atoms: _401  and  _402
REMARK  158  A    between atoms: _405  and  _407
REMARK  159  A    between atoms: _407  and  _408
REMARK  160  A    between atoms: _407  and  _410
REMARK  161  A    between atoms: _410  and  _411
REMARK  162  A    between atoms: _414  and  _416
REMARK  163  A    between atoms: _416  and  _417
REMARK  164  A    between atoms: _416  and  _419
REMARK  165  A    between atoms: _419  and  _420
REMARK  166  A    between atoms: _420  and  _421
REMARK  167  A    between atoms: _421  and  _422
REMARK  168  A    between atoms: _431  and  _433
REMARK  169  A    between atoms: _433  and  _434
REMARK  170  A    between atoms: _433  and  _436
REMARK  171  A    between atoms: _436  and  _437
REMARK  172  A    between atoms: _442  and  _444
REMARK  173  A    between atoms: _444  and  _445
REMARK  174  A    between atoms: _444  and  _447
REMARK  175  A    between atoms: _447  and  _448
REMARK  176  A    between atoms: _448  and  _449
REMARK  177  A    between atoms: _449  and  _450
REMARK  178  A    between atoms: _459  and  _461
REMARK  179  A    between atoms: _461  and  _462
REMARK  180  A    between atoms: _465  and  _467
REMARK  181  A    between atoms: _467  and  _468
REMARK  182  A    between atoms: _470  and  _472
REMARK  183  A    between atoms: _472  and  _473
REMARK  184  A    between atoms: _472  and  _475
REMARK  185  A    between atoms: _475  and  _476
REMARK  186  A    between atoms: _486  and  _488
REMARK  187  A    between atoms: _488  and  _489
REMARK  188  A    between atoms: _488  and  _491
REMARK  189  A    between atoms: _491  and  _492
REMARK  190  A    between atoms: _493  and  _495
REMARK  191  A    between atoms: _495  and  _496
REMARK  192  A    between atoms: _499  and  _501
REMARK  193  A    between atoms: _501  and  _502
REMARK  194  A    between atoms: _501  and  _504
REMARK  195  A    between atoms: _504  and  _505
REMARK  196  A    between atoms: _508  and  _510
REMARK  197  A    between atoms: _510  and  _511
REMARK  198  A    between atoms: _510  and  _513
REMARK  199  A    between atoms: _513  and  _514
REMARK  200  A    between atoms: _519  and  _520
REMARK  201  A    between atoms: _522  and  _524
REMARK  202  A    between atoms: _524  and  _525
REMARK  203  A    between atoms: _524  and  _527
REMARK  204  A    between atoms: _527  and  _528
REMARK  205  A    between atoms: _530  and  _532
REMARK  206  A    between atoms: _532  and  _533
REMARK  207  A    between atoms: _532  and  _535
REMARK  208  A    between atoms: _535  and  _536
REMARK  209  A    between atoms: _542  and  _544
REMARK  210  A    between atoms: _544  and  _545
REMARK  211  A    between atoms: _544  and  _547
REMARK  212  A    between atoms: _547  and  _548
REMARK  213  A    between atoms: _551  and  _553
REMARK  214  A    between atoms: _553  and  _554
REMARK  215  A    between atoms: _553  and  _556
REMARK  216  A    between atoms: _556  and  _557
REMARK  217  A    between atoms: _559  and  _561
REMARK  218  A    between atoms: _561  and  _562
REMARK  219  A    between atoms: _561  and  _564
REMARK  220  A    between atoms: _564  and  _565
REMARK  221  A    between atoms: _570  and  _572
REMARK  222  A    between atoms: _572  and  _573
REMARK  223  A    between atoms: _572  and  _575
REMARK  224  A    between atoms: _575  and  _576
REMARK  225  A    between atoms: _581  and  _583
REMARK  226  A    between atoms: _583  and  _584
REMARK  227  A    between atoms: _583  and  _586
REMARK  228  A    between atoms: _586  and  _587
REMARK  229  A    between atoms: _590  and  _592
REMARK  230  A    between atoms: _592  and  _593
REMARK  231  A    between atoms: _592  and  _595
REMARK  232  A    between atoms: _595  and  _596
REMARK  233  A    between atoms: _601  and  _602
REMARK  234  A    between atoms: _604  and  _606
REMARK  235  A    between atoms: _606  and  _607
REMARK  236  A    between atoms: _606  and  _609
REMARK  237  A    between atoms: _609  and  _610
REMARK  238  A    between atoms: _615  and  _616
REMARK  239  A    between atoms: _618  and  _620
REMARK  240  A    between atoms: _620  and  _621
REMARK  241  A    between atoms: _620  and  _623
REMARK  242  A    between atoms: _626  and  _628
REMARK  243  A    between atoms: _628  and  _629
REMARK  244  A    between atoms: _628  and  _631
REMARK  245  A    between atoms: _631  and  _632
REMARK  246  A    between atoms: _637  and  _639
REMARK  247  A    between atoms: _639  and  _640
REMARK  248  A    between atoms: _643  and  _645
REMARK  249  A    between atoms: _645  and  _646
REMARK  250  A    between atoms: _645  and  _648
REMARK  251  A    between atoms: _648  and  _649
REMARK  252  A    between atoms: _649  and  _650
REMARK  253  A    between atoms: _650  and  _651
REMARK  254  A    between atoms: _660  and  _662
REMARK  255  A    between atoms: _662  and  _663
REMARK  256  A    between atoms: _662  and  _665
REMARK  257  A    between atoms: _665  and  _666
REMARK  258  A    between atoms: _669  and  _671
REMARK  259  A    between atoms: _671  and  _672
REMARK  260  A    between atoms: _671  and  _674
REMARK  261  A    between atoms: _674  and  _675
REMARK  262  A    between atoms: _678  and  _680
REMARK  263  A    between atoms: _680  and  _681
REMARK  264  A    between atoms: _680  and  _683
REMARK  265  A    between atoms: _683  and  _684
REMARK                            x       y       z     vdW  Elec       q    Type
REMARK                         _______ _______ _______ _____ _____    ______ ____
ROOT
ATOM      1  CA  ARG A   1       5.424  28.748  23.215  0.00  0.00    +0.145 C 
ENDROOT
BRANCH   1   2
ATOM      2  C   ARG A   1       6.937  28.698  23.280  0.00  0.00    +0.238 C 
ATOM      3  O   ARG A   1       7.479  28.386  24.350  0.00  0.00    -0.274 OA
ATOM      4  N   HIS A   2       7.644  29.017  22.190  0.00  0.00    -0.298 N 
ATOM      5  H   HIS A   2       7.165  29.243  21.295  0.00  0.00    +0.150 HD
BRANCH   4   6
ATOM      6  CA  HIS A   2       9.110  29.042  22.281  0.00  0.00    +0.143 C 
BRANCH   6   7
ATOM      7  C   HIS A   2       9.574  30.154  23.214  0.00  0.00    +0.227 C 
ATOM      8  O   HIS A   2      10.576  29.959  23.925  0.00  0.00    -0.286 OA
ENDBRANCH   6   7
BRANCH   6   9
ATOM      9  CB  HIS A   2       9.782  29.187  20.909  0.00  0.00    +0.075 C 
BRANCH   9  10
ATOM     10  CG  HIS A   2       9.834  27.857  20.189  0.00  0.00    +0.082 A 
ATOM     11  ND1 HIS A   2      10.661  26.823  20.568  0.00  0.00    -0.227 NA
ATOM     12  CE1 HIS A   2      10.472  25.808  19.743  0.00  0.00    +0.199 A 
ATOM     13  NE2 HIS A   2       9.536  26.135  18.865  0.00  0.00    -0.221 NA
ATOM     14  CD2 HIS A   2       9.108  27.420  19.125  0.00  0.00    +0.115 A 
ENDBRANCH   9  10
ENDBRANCH   6   9
ENDBRANCH   4   6
ENDBRANCH   1   2
BRANCH   1  15
ATOM     15  N   ARG A   1       4.971  29.917  22.451  0.00  0.00    -0.238 NA
ATOM     16  H   ARG A   1       4.474  29.786  21.547  0.00  0.00    +0.142 HD
ENDBRANCH   1  15
BRANCH   1  17
ATOM     17  CB  ARG A   1       4.839  27.476  22.575  0.00  0.00    +0.030 C 
BRANCH  17  18
ATOM     18  CG  ARG A   1       3.338  27.422  22.830  0.00  0.00    +0.045 C 
BRANCH  18  19
ATOM     19  CD  ARG A   1       2.653  26.356  21.980  0.00  0.00    +0.174 C 
BRANCH  19  20
ATOM     20  NE  ARG A   1       3.154  25.027  22.357  0.00  0.00    -0.265 N 
ATOM     21  HE  ARG A   1       3.722  24.959  23.226  0.00  0.00    +0.259 HD
ATOM     22  CZ  ARG A   1       2.940  23.905  21.677  0.00  0.00    +0.342 C 
ATOM     23  NH2 ARG A   1       3.453  22.730  22.094  0.00  0.00    -0.292 N 
ATOM     24 HH21 ARG A   1       4.027  22.691  22.961  0.00  0.00    +0.255 HD
ATOM     25 HH22 ARG A   1       3.275  21.862  21.549  0.00  0.00    +0.255 HD
ATOM     26  NH1 ARG A   1       2.251  23.994  20.549  0.00  0.00    -0.292 N 
ATOM     27 HH11 ARG A   1       1.900  24.918  20.226  0.00  0.00    +0.255 HD
ATOM     28 HH12 ARG A   1       2.061  23.140  19.987  0.00  0.00    +0.255 HD
ENDBRANCH  19  20
ENDBRANCH  18  19
ENDBRANCH  17  18
ENDBRANCH   1  17
TORSDOF 10
REMARK  Name = ../refined-set-2016/1b9j/1b9j_pocket.pdb
REMARK  265 active torsions:
REMARK  status: ('A' for Active; 'I' for Inactive)
REMARK    1  A    between atoms: _1  and  _3
REMARK    2  A    between atoms: _3  and  _4
REMARK    3  A    between atoms: _3  and  _6
REMARK    4  A    between atoms: _6  and  _7
REMARK    5  A    between atoms: _12  and  _14
REMARK    6  A    between atoms: _14  and  _15
REMARK    7  A    between atoms: _17  and  _19
REMARK    8  A    between atoms: _19  and  _20
REMARK    9  A    between atoms: _19  and  _22
REMARK   10  A    between atoms: _22  and  _23
REMARK   11  A    between atoms: _25  and  _27
REMARK   12  A    between atoms: _27  and  _28
REMARK   13  A    between atoms: _27  and  _30
REMARK   14  A    between atoms: _30  and  _31
REMARK   15  A    between atoms: _31  and  _32
REMARK   16  A    between atoms: _37  and  _39
REMARK   17  A    between atoms: _39  and  _40
REMARK   18  A    between atoms: _39  and  _42
REMARK   19  A    between atoms: _42  and  _43
REMARK   20  A    between atoms: _46  and  _48
REMARK   21  A    between atoms: _48  and  _49
REMARK   22  A    between atoms: _48  and  _51
REMARK   23  A    between atoms: _51  and  _52
REMARK   24  A    between atoms: _52  and  _53
REMARK   25  A    between atoms: _56  and  _58
REMARK   26  A    between atoms: _58  and  _59
REMARK   27  A    between atoms: _61  and  _63
REMARK   28  A    between atoms: _63  and  _64
REMARK   29  A    between atoms: _63  and  _66
REMARK   30  A    between atoms: _70  and  _71
REMARK   31  A    between atoms: _76  and  _78
REMARK   32  A    between atoms: _78  and  _79
REMARK   33  A    between atoms: _78  and  _81
REMARK   34  A    between atoms: _81  and  _82
REMARK   35  A    between atoms: _82  and  _83
REMARK   36  A    between atoms: _86  and  _88
REMARK   37  A    between atoms: _88  and  _89
REMARK   38  A    between atoms: _88  and  _91
REMARK   39  A    between atoms: _91  and  _92
REMARK   40  A    between atoms: _94  and  _96
REMARK   41  A    between atoms: _96  and  _97
REMARK   42  A    between atoms: _96  and  _99
REMARK   43  A    between atoms: _99  and  _100
REMARK   44  A    between atoms: _105  and  _107
REMARK   45  A    between atoms: _107  and  _108
REMARK   46  A    between atoms: _107  and  _110
REMARK   47  A    between atoms: _110  and  _111
REMARK   48  A    between atoms: _111  and  _112
REMARK   49  A    between atoms: _112  and  _113
REMARK   50  A    between atoms: _123  and  _124
REMARK   51  A    between atoms: _129  and  _131
REMARK   52  A    between atoms: _131  and  _132
REMARK   53  A    between atoms: _131  and  _134
REMARK   54  A    between atoms: _134  and  _135
REMARK   55  A    between atoms: _140  and  _141
REMARK   56  A    between atoms: _143  and  _145
REMARK   57  A    between atoms: _145  and  _146
REMARK   58  A    between atoms: _145  and  _148
REMARK   59  A    between atoms: _148  and  _149
REMARK   60  A    between atoms: _154  and  _155
REMARK   61  A    between atoms: _157  and  _159
REMARK   62  A    between atoms: _159  and  _160
REMARK   63  A    between atoms: _159  and  _162
REMARK   64  A    between atoms: _165  and  _167
REMARK   65  A    between atoms: _167  and  _168
REMARK   66  A    between atoms: _167  and  _170
REMARK   67  A    between atoms: _170  and  _171
REMARK   68  A    between atoms: _177  and  _178
REMARK   69  A    between atoms: _183  and  _185
REMARK   70  A    between atoms: _185  and  _186
REMARK   71  A    between atoms: _185  and  _188
REMARK   72  A    between atoms: _188  and  _189
REMARK   73  A    between atoms: _191  and  _193
REMARK   74  A    between atoms: _193  and  _194
REMARK   75  A    between atoms: _193  and  _196
REMARK   76  A    between atoms: _196  and  _197
REMARK   77  A    between atoms: _197  and  _198
REMARK   78  A    between atoms: _201  and  _203
REMARK   79  A    between atoms: _203  and  _204
REMARK   80  A    between atoms: _203  and  _206
REMARK   81  A    between atoms: _206  and  _207
REMARK   82  A    between atoms: _212  and  _213
REMARK   83  A    between atoms: _215  and  _217
REMARK   84  A    between atoms: _217  and  _218
REMARK   85  A    between atoms: _217  and  _220
REMARK   86  A    between atoms: _220  and  _221
REMARK   87  A    between atoms: _226  and  _228
REMARK   88  A    between atoms: _228  and  _229
REMARK   89  A    between atoms: _228  and  _231
REMARK   90  A    between atoms: _231  and  _232
REMARK   91  A    between atoms: _237  and  _239
REMARK   92  A    between atoms: _239  and  _240
REMARK   93  A    between atoms: _239  and  _242
REMARK   94  A    between atoms: _242  and  _243
REMARK   95  A    between atoms: _243  and  _244
REMARK   96  A    between atoms: _246  and  _248
REMARK   97  A    between atoms: _248  and  _249
REMARK   98  A    between atoms: _248  and  _251
REMARK   99  A    between atoms: _251  and  _252
REMARK  100  A    between atoms: _257  and  _258
REMARK  101  A    between atoms: _260  and  _262
REMARK  102  A    between atoms: _262  and  _263
REMARK  103  A    between atoms: _262  and  _265
REMARK  104  A    between atoms: _265  and  _266
REMARK  105  A    between atoms: _269  and  _271
REMARK  106  A    between atoms: _271  and  _272
REMARK  107  A    between atoms: _271  and  _274
REMARK  108  A    between atoms: _274  and  _275
REMARK  109  A    between atoms: _275  and  _492
REMARK  110  A    between atoms: _276  and  _278
REMARK  111  A    between atoms: _278  and  _279
REMARK  112  A    between atoms: _278  and  _281
REMARK  113  A    between atoms: _281  and  _282
REMARK  114  A    between atoms: _285  and  _287
REMARK  115  A    between atoms: _287  and  _288
REMARK  116  A    between atoms: _287  and  _290
REMARK  117  A    between atoms: _290  and  _291
REMARK  118  A    between atoms: _296  and  _297
REMARK  119  A    between atoms: _299  and  _301
REMARK  120  A    between atoms: _301  and  _302
REMARK  121  A    between atoms: _301  and  _304
REMARK  122  A    between atoms: _304  and  _305
REMARK  123  A    between atoms: _310  and  _311
REMARK  124  A    between atoms: _313  and  _315
REMARK  125  A    between atoms: _315  and  _316
REMARK  126  A    between atoms: _315  and  _318
REMARK  127  A    between atoms: _318  and  _319
REMARK  128  A    between atoms: _319  and  _320
REMARK  129  A    between atoms: _323  and  _325
REMARK  130  A    between atoms: _325  and  _326
REMARK  131  A    between atoms: _325  and  _328
REMARK  132  A    between atoms: _328  and  _329
REMARK  133  A    between atoms: _334  and  _335
REMARK  134  A    between atoms: _337  and  _339
REMARK  135  A    between atoms: _339  and  _340
REMARK  136  A    between atoms: _339  and  _342
REMARK  137  A    between atoms: _342  and  _343
REMARK  138  A    between atoms: _348  and  _350
REMARK  139  A    between atoms: _350  and  _351
REMARK  140  A    between atoms: _350  and  _353
REMARK  141  A    between atoms: _353  and  _354
REMARK  142  A    between atoms: _357  and  _359
REMARK  143  A    between atoms: _359  and  _360
REMARK  144  A    between atoms: _359  and  _362
REMARK  145  A    between atoms: _362  and  _363
REMARK  146  A    between atoms: _368  and  _370
REMARK  147  A    between atoms: _370  and  _371
REMARK  148  A    between atoms: _370  and  _373
REMARK  149  A    between atoms: _373  and  _374
REMARK  150  A    between atoms: _384  and  _386
REMARK  151  A    between atoms: _386  and  _387
REMARK  152  A    between atoms: _386  and  _389
REMARK  153  A    between atoms: _389  and  _390
REMARK  154  A    between atoms: _396  and  _398
REMARK  155  A    between atoms: _398  and  _399
REMARK  156  A    between atoms: _398  and  _401
REMARK  157  A    between atoms: _401  and  _402
REMARK  158  A    between atoms: _405  and  _407
REMARK  159  A    between atoms: _407  and  _408
REMARK  160  A    between atoms: _407  and  _410
REMARK  161  A    between atoms: _410  and  _411
REMARK  162  A    between atoms: _414  and  _416
REMARK  163  A    between atoms: _416  and  _417
REMARK  164  A    between atoms: _416  and  _419
REMARK  165  A    between atoms: _419  and  _420
REMARK  166  A    between atoms: _420  and  _421
REMARK  167  A    between atoms: _421  and  _422
REMARK  168  A    between atoms: _431  and  _433
REMARK  169  A    between atoms: _433  and  _434
REMARK  170  A    between atoms: _433  and  _436
REMARK  171  A    between atoms: _436  and  _437
REMARK  172  A    between atoms: _442  and  _444
REMARK  173  A    between atoms: _444  and  _445
REMARK  174  A    between atoms: _444  and  _447
REMARK  175  A    between atoms: _447  and  _448
REMARK  176  A    between atoms: _448  and  _449
REMARK  177  A    between atoms: _449  and  _450
REMARK  178  A    between atoms: _459  and  _461
REMARK  179  A    between atoms: _461  and  _462
REMARK  180  A    between atoms: _465  and  _467
REMARK  181  A    between atoms: _467  and  _468
REMARK  182  A    between atoms: _470  and  _472
REMARK  183  A    between atoms: _472  and  _473
REMARK  184  A    between atoms: _472  and  _475
REMARK  185  A    between atoms: _475  and  _476
REMARK  186  A    between atoms: _486  and  _488
REMARK  187  A    between atoms: _488  and  _489
REMARK  188  A    between atoms: _488  and  _491
REMARK  189  A    between atoms: _491  and  _492
REMARK  190  A    between atoms: _493  and  _495
REMARK  191  A    between atoms: _495  and  _496
REMARK  192  A    between atoms: _499  and  _501
REMARK  193  A    between atoms: _501  and  _502
REMARK  194  A    between atoms: _501  and  _504
REMARK  195  A    between atoms: _504  and  _505
REMARK  196  A    between atoms: _508  and  _510
REMARK  197  A    between atoms: _510  and  _511
REMARK  198  A    between atoms: _510  and  _513
REMARK  199  A    between atoms: _513  and  _514
REMARK  200  A    between atoms: _519  and  _520
REMARK  201  A    between atoms: _522  and  _524
REMARK  202  A    between atoms: _524  and  _525
REMARK  203  A    between atoms: _524  and  _527
REMARK  204  A    between atoms: _527  and  _528
REMARK  205  A    between atoms: _530  and  _532
REMARK  206  A    between atoms: _532  and  _533
REMARK  207  A    between atoms: _532  and  _535
REMARK  208  A    between atoms: _535  and  _536
REMARK  209  A    between atoms: _542  and  _544
REMARK  210  A    between atoms: _544  and  _545
REMARK  211  A    between atoms: _544  and  _547
REMARK  212  A    between atoms: _547  and  _548
REMARK  213  A    between atoms: _551  and  _553
REMARK  214  A    between atoms: _553  and  _554
REMARK  215  A    between atoms: _553  and  _556
REMARK  216  A    between atoms: _556  and  _557
REMARK  217  A    between atoms: _559  and  _561
REMARK  218  A    between atoms: _561  and  _562
REMARK  219  A    between atoms: _561  and  _564
REMARK  220  A    between atoms: _564  and  _565
REMARK  221  A    between atoms: _570  and  _572
REMARK  222  A    between atoms: _572  and  _573
REMARK  223  A    between atoms: _572  and  _575
REMARK  224  A    between atoms: _575  and  _576
REMARK  225  A    between atoms: _581  and  _583
REMARK  226  A    between atoms: _583  and  _584
REMARK  227  A    between atoms: _583  and  _586
REMARK  228  A    between atoms: _586  and  _587
REMARK  229  A    between atoms: _590  and  _592
REMARK  230  A    between atoms: _592  and  _593
REMARK  231  A    between atoms: _592  and  _595
REMARK  232  A    between atoms: _595  and  _596
REMARK  233  A    between atoms: _601  and  _602
REMARK  234  A    between atoms: _604  and  _606
REMARK  235  A    between atoms: _606  and  _607
REMARK  236  A    between atoms: _606  and  _609
REMARK  237  A    between atoms: _609  and  _610
REMARK  238  A    between atoms: _615  and  _616
REMARK  239  A    between atoms: _618  and  _620
REMARK  240  A    between atoms: _620  and  _621
REMARK  241  A    between atoms: _620  and  _623
REMARK  242  A    between atoms: _626  and  _628
REMARK  243  A    between atoms: _628  and  _629
REMARK  244  A    between atoms: _628  and  _631
REMARK  245  A    between atoms: _631  and  _632
REMARK  246  A    between atoms: _637  and  _639
REMARK  247  A    between atoms: _639  and  _640
REMARK  248  A    between atoms: _643  and  _645
REMARK  249  A    between atoms: _645  and  _646
REMARK  250  A    between atoms: _645  and  _648
REMARK  251  A    between atoms: _648  and  _649
REMARK  252  A    between atoms: _649  and  _650
REMARK  253  A    between atoms: _650  and  _651
REMARK  254  A    between atoms: _660  and  _662
REMARK  255  A    between atoms: _662  and  _663
REMARK  256  A    between atoms: _662  and  _665
REMARK  257  A    between atoms: _665  and  _666
REMARK  258  A    between atoms: _669  and  _671
REMARK  259  A    between atoms: _671  and  _672
REMARK  260  A    between atoms: _671  and  _674
REMARK  261  A    between atoms: _674  and  _675
REMARK  262  A    between atoms: _678  and  _680
REMARK  263  A    between atoms: _680  and  _681
REMARK  264  A    between atoms: _680  and  _683
REMARK  265  A    between atoms: _683  and  _684
REMARK                            x       y       z     vdW  Elec       q    Type
REMARK                         _______ _______ _______ _____ _____    ______ ____
ROOT
ATOM      1  C   SER A   1       9.939  11.686  19.345  0.00  0.00    +0.241 C 
ATOM      2  N   PHE A   2       9.311  11.095  20.361  0.00  0.00    -0.298 N 
ATOM      3  H   PHE A   2       9.341  10.059  20.446  0.00  0.00    +0.150 HD
ATOM      4  O   SER A   1       9.872  12.926  19.173  0.00  0.00    -0.274 OA
ENDROOT
BRANCH   1   5
ATOM      5  CA  SER A   1      10.850  10.829  18.472  0.00  0.00    +0.174 C 
BRANCH   5   6
ATOM      6  N   SER A   1      11.400   9.689  19.250  0.00  0.00    -0.236 NA
ATOM      7  H   SER A   1      11.219   8.710  18.950  0.00  0.00    +0.142 HD
ENDBRANCH   5   6
BRANCH   5   8
ATOM      8  CB  SER A   1      10.124  10.282  17.222  0.00  0.00    +0.163 C 
BRANCH   8   9
ATOM      9  OG  SER A   1       9.691  11.414  16.464  0.00  0.00    -0.380 OA
ATOM     10  H   SER A   1      10.478  11.956  16.204  0.00  0.00    +0.211 HD
ENDBRANCH   8   9
ENDBRANCH   5   8
ENDBRANCH   1   5
BRANCH   2  11
ATOM     11  CA  PHE A   2       8.586  11.870  21.351  0.00  0.00    +0.141 C 
BRANCH  11  12
ATOM     12  C   PHE A   2       9.502  12.257  22.508  0.00  0.00    +0.227 C 
ATOM     13  O   PHE A   2       9.644  13.417  22.903  0.00  0.00    -0.286 OA
ENDBRANCH  11  12
BRANCH  11  14
ATOM     14  CB  PHE A   2       7.418  11.029  21.930  0.00  0.00    +0.054 C 
BRANCH  14  15
ATOM     15  CG  PHE A   2       6.135  11.181  21.127  0.00  0.00    -0.020 A 
ATOM     16  CD2 PHE A   2       5.087  11.944  21.600  0.00  0.00    -0.004 A 
ATOM     17  CE2 PHE A   2       3.937  12.069  20.828  0.00  0.00    -0.000 A 
ATOM     18  CZ  PHE A   2       3.820  11.416  19.606  0.00  0.00    -0.000 A 
ATOM     19  CE1 PHE A   2       4.865  10.630  19.148  0.00  0.00    -0.000 A 
ATOM     20  CD1 PHE A   2       6.031  10.529  19.924  0.00  0.00    -0.004 A 
ENDBRANCH  14  15
ENDBRANCH  11  14
ENDBRANCH   2  11
TORSDOF 8
REMARK  Name = ../refined-set-2016/1b9j/1b9j_pocket.pdb
REMARK  265 active torsions:
REMARK  status: ('A' for Active; 'I' for Inactive)
REMARK    1  A    between atoms: _1  and  _3
REMARK    2  A    between atoms: _3  and  _4
REMARK    3  A    between atoms: _3  and  _6
REMARK    4  A    between atoms: _6  and  _7
REMARK    5  A    between atoms: _12  and  _14
REMARK    6  A    between atoms: _14  and  _15
REMARK    7  A    between atoms: _17  and  _19
REMARK    8  A    between atoms: _19  and  _20
REMARK    9  A    between atoms: _19  and  _22
REMARK   10  A    between atoms: _22  and  _23
REMARK   11  A    between atoms: _25  and  _27
REMARK   12  A    between atoms: _27  and  _28
REMARK   13  A    between atoms: _27  and  _30
REMARK   14  A    between atoms: _30  and  _31
REMARK   15  A    between atoms: _31  and  _32
REMARK   16  A    between atoms: _37  and  _39
REMARK   17  A    between atoms: _39  and  _40
REMARK   18  A    between atoms: _39  and  _42
REMARK   19  A    between atoms: _42  and  _43
REMARK   20  A    between atoms: _46  and  _48
REMARK   21  A    between atoms: _48  and  _49
REMARK   22  A    between atoms: _48  and  _51
REMARK   23  A    between atoms: _51  and  _52
REMARK   24  A    between atoms: _52  and  _53
REMARK   25  A    between atoms: _56  and  _58
REMARK   26  A    between atoms: _58  and  _59
REMARK   27  A    between atoms: _61  and  _63
REMARK   28  A    between atoms: _63  and  _64
REMARK   29  A    between atoms: _63  and  _66
REMARK   30  A    between atoms: _70  and  _71
REMARK   31  A    between atoms: _76  and  _78
REMARK   32  A    between atoms: _78  and  _79
REMARK   33  A    between atoms: _78  and  _81
REMARK   34  A    between atoms: _81  and  _82
REMARK   35  A    between atoms: _82  and  _83
REMARK   36  A    between atoms: _86  and  _88
REMARK   37  A    between atoms: _88  and  _89
REMARK   38  A    between atoms: _88  and  _91
REMARK   39  A    between atoms: _91  and  _92
REMARK   40  A    between atoms: _94  and  _96
REMARK   41  A    between atoms: _96  and  _97
REMARK   42  A    between atoms: _96  and  _99
REMARK   43  A    between atoms: _99  and  _100
REMARK   44  A    between atoms: _105  and  _107
REMARK   45  A    between atoms: _107  and  _108
REMARK   46  A    between atoms: _107  and  _110
REMARK   47  A    between atoms: _110  and  _111
REMARK   48  A    between atoms: _111  and  _112
REMARK   49  A    between atoms: _112  and  _113
REMARK   50  A    between atoms: _123  and  _124
REMARK   51  A    between atoms: _129  and  _131
REMARK   52  A    between atoms: _131  and  _132
REMARK   53  A    between atoms: _131  and  _134
REMARK   54  A    between atoms: _134  and  _135
REMARK   55  A    between atoms: _140  and  _141
REMARK   56  A    between atoms: _143  and  _145
REMARK   57  A    between atoms: _145  and  _146
REMARK   58  A    between atoms: _145  and  _148
REMARK   59  A    between atoms: _148  and  _149
REMARK   60  A    between atoms: _154  and  _155
REMARK   61  A    between atoms: _157  and  _159
REMARK   62  A    between atoms: _159  and  _160
REMARK   63  A    between atoms: _159  and  _162
REMARK   64  A    between atoms: _165  and  _167
REMARK   65  A    between atoms: _167  and  _168
REMARK   66  A    between atoms: _167  and  _170
REMARK   67  A    between atoms: _170  and  _171
REMARK   68  A    between atoms: _177  and  _178
REMARK   69  A    between atoms: _183  and  _185
REMARK   70  A    between atoms: _185  and  _186
REMARK   71  A    between atoms: _185  and  _188
REMARK   72  A    between atoms: _188  and  _189
REMARK   73  A    between atoms: _191  and  _193
REMARK   74  A    between atoms: _193  and  _194
REMARK   75  A    between atoms: _193  and  _196
REMARK   76  A    between atoms: _196  and  _197
REMARK   77  A    between atoms: _197  and  _198
REMARK   78  A    between atoms: _201  and  _203
REMARK   79  A    between atoms: _203  and  _204
REMARK   80  A    between atoms: _203  and  _206
REMARK   81  A    between atoms: _206  and  _207
REMARK   82  A    between atoms: _212  and  _213
REMARK   83  A    between atoms: _215  and  _217
REMARK   84  A    between atoms: _217  and  _218
REMARK   85  A    between atoms: _217  and  _220
REMARK   86  A    between atoms: _220  and  _221
REMARK   87  A    between atoms: _226  and  _228
REMARK   88  A    between atoms: _228  and  _229
REMARK   89  A    between atoms: _228  and  _231
REMARK   90  A    between atoms: _231  and  _232
REMARK   91  A    between atoms: _237  and  _239
REMARK   92  A    between atoms: _239  and  _240
REMARK   93  A    between atoms: _239  and  _242
REMARK   94  A    between atoms: _242  and  _243
REMARK   95  A    between atoms: _243  and  _244
REMARK   96  A    between atoms: _246  and  _248
REMARK   97  A    between atoms: _248  and  _249
REMARK   98  A    between atoms: _248  and  _251
REMARK   99  A    between atoms: _251  and  _252
REMARK  100  A    between atoms: _257  and  _258
REMARK  101  A    between atoms: _260  and  _262
REMARK  102  A    between atoms: _262  and  _263
REMARK  103  A    between atoms: _262  and  _265
REMARK  104  A    between atoms: _265  and  _266
REMARK  105  A    between atoms: _269  and  _271
REMARK  106  A    between atoms: _271  and  _272
REMARK  107  A    between atoms: _271  and  _274
REMARK  108  A    between atoms: _274  and  _275
REMARK  109  A    between atoms: _275  and  _492
REMARK  110  A    between atoms: _276  and  _278
REMARK  111  A    between atoms: _278  and  _279
REMARK  112  A    between atoms: _278  and  _281
REMARK  113  A    between atoms: _281  and  _282
REMARK  114  A    between atoms: _285  and  _287
REMARK  115  A    between atoms: _287  and  _288
REMARK  116  A    between atoms: _287  and  _290
REMARK  117  A    between atoms: _290  and  _291
REMARK  118  A    between atoms: _296  and  _297
REMARK  119  A    between atoms: _299  and  _301
REMARK  120  A    between atoms: _301  and  _302
REMARK  121  A    between atoms: _301  and  _304
REMARK  122  A    between atoms: _304  and  _305
REMARK  123  A    between atoms: _310  and  _311
REMARK  124  A    between atoms: _313  and  _315
REMARK  125  A    between atoms: _315  and  _316
REMARK  126  A    between atoms: _315  and  _318
REMARK  127  A    between atoms: _318  and  _319
REMARK  128  A    between atoms: _319  and  _320
REMARK  129  A    between atoms: _323  and  _325
REMARK  130  A    between atoms: _325  and  _326
REMARK  131  A    between atoms: _325  and  _328
REMARK  132  A    between atoms: _328  and  _329
REMARK  133  A    between atoms: _334  and  _335
REMARK  134  A    between atoms: _337  and  _339
REMARK  135  A    between atoms: _339  and  _340
REMARK  136  A    between atoms: _339  and  _342
REMARK  137  A    between atoms: _342  and  _343
REMARK  138  A    between atoms: _348  and  _350
REMARK  139  A    between atoms: _350  and  _351
REMARK  140  A    between atoms: _350  and  _353
REMARK  141  A    between atoms: _353  and  _354
REMARK  142  A    between atoms: _357  and  _359
REMARK  143  A    between atoms: _359  and  _360
REMARK  144  A    between atoms: _359  and  _362
REMARK  145  A    between atoms: _362  and  _363
REMARK  146  A    between atoms: _368  and  _370
REMARK  147  A    between atoms: _370  and  _371
REMARK  148  A    between atoms: _370  and  _373
REMARK  149  A    between atoms: _373  and  _374
REMARK  150  A    between atoms: _384  and  _386
REMARK  151  A    between atoms: _386  and  _387
REMARK  152  A    between atoms: _386  and  _389
REMARK  153  A    between atoms: _389  and  _390
REMARK  154  A    between atoms: _396  and  _398
REMARK  155  A    between atoms: _398  and  _399
REMARK  156  A    between atoms: _398  and  _401
REMARK  157  A    between atoms: _401  and  _402
REMARK  158  A    between atoms: _405  and  _407
REMARK  159  A    between atoms: _407  and  _408
REMARK  160  A    between atoms: _407  and  _410
REMARK  161  A    between atoms: _410  and  _411
REMARK  162  A    between atoms: _414  and  _416
REMARK  163  A    between atoms: _416  and  _417
REMARK  164  A    between atoms: _416  and  _419
REMARK  165  A    between atoms: _419  and  _420
REMARK  166  A    between atoms: _420  and  _421
REMARK  167  A    between atoms: _421  and  _422
REMARK  168  A    between atoms: _431  and  _433
REMARK  169  A    between atoms: _433  and  _434
REMARK  170  A    between atoms: _433  and  _436
REMARK  171  A    between atoms: _436  and  _437
REMARK  172  A    between atoms: _442  and  _444
REMARK  173  A    between atoms: _444  and  _445
REMARK  174  A    between atoms: _444  and  _447
REMARK  175  A    between atoms: _447  and  _448
REMARK  176  A    between atoms: _448  and  _449
REMARK  177  A    between atoms: _449  and  _450
REMARK  178  A    between atoms: _459  and  _461
REMARK  179  A    between atoms: _461  and  _462
REMARK  180  A    between atoms: _465  and  _467
REMARK  181  A    between atoms: _467  and  _468
REMARK  182  A    between atoms: _470  and  _472
REMARK  183  A    between atoms: _472  and  _473
REMARK  184  A    between atoms: _472  and  _475
REMARK  185  A    between atoms: _475  and  _476
REMARK  186  A    between atoms: _486  and  _488
REMARK  187  A    between atoms: _488  and  _489
REMARK  188  A    between atoms: _488  and  _491
REMARK  189  A    between atoms: _491  and  _492
REMARK  190  A    between atoms: _493  and  _495
REMARK  191  A    between atoms: _495  and  _496
REMARK  192  A    between atoms: _499  and  _501
REMARK  193  A    between atoms: _501  and  _502
REMARK  194  A    between atoms: _501  and  _504
REMARK  195  A    between atoms: _504  and  _505
REMARK  196  A    between atoms: _508  and  _510
REMARK  197  A    between atoms: _510  and  _511
REMARK  198  A    between atoms: _510  and  _513
REMARK  199  A    between atoms: _513  and  _514
REMARK  200  A    between atoms: _519  and  _520
REMARK  201  A    between atoms: _522  and  _524
REMARK  202  A    between atoms: _524  and  _525
REMARK  203  A    between atoms: _524  and  _527
REMARK  204  A    between atoms: _527  and  _528
REMARK  205  A    between atoms: _530  and  _532
REMARK  206  A    between atoms: _532  and  _533
REMARK  207  A    between atoms: _532  and  _535
REMARK  208  A    between atoms: _535  and  _536
REMARK  209  A    between atoms: _542  and  _544
REMARK  210  A    between atoms: _544  and  _545
REMARK  211  A    between atoms: _544  and  _547
REMARK  212  A    between atoms: _547  and  _548
REMARK  213  A    between atoms: _551  and  _553
REMARK  214  A    between atoms: _553  and  _554
REMARK  215  A    between atoms: _553  and  _556
REMARK  216  A    between atoms: _556  and  _557
REMARK  217  A    between atoms: _559  and  _561
REMARK  218  A    between atoms: _561  and  _562
REMARK  219  A    between atoms: _561  and  _564
REMARK  220  A    between atoms: _564  and  _565
REMARK  221  A    between atoms: _570  and  _572
REMARK  222  A    between atoms: _572  and  _573
REMARK  223  A    between atoms: _572  and  _575
REMARK  224  A    between atoms: _575  and  _576
REMARK  225  A    between atoms: _581  and  _583
REMARK  226  A    between atoms: _583  and  _584
REMARK  227  A    between atoms: _583  and  _586
REMARK  228  A    between atoms: _586  and  _587
REMARK  229  A    between atoms: _590  and  _592
REMARK  230  A    between atoms: _592  and  _593
REMARK  231  A    between atoms: _592  and  _595
REMARK  232  A    between atoms: _595  and  _596
REMARK  233  A    between atoms: _601  and  _602
REMARK  234  A    between atoms: _604  and  _606
REMARK  235  A    between atoms: _606  and  _607
REMARK  236  A    between atoms: _606  and  _609
REMARK  237  A    between atoms: _609  and  _610
REMARK  238  A    between atoms: _615  and  _616
REMARK  239  A    between atoms: _618  and  _620
REMARK  240  A    between atoms: _620  and  _621
REMARK  241  A    between atoms: _620  and  _623
REMARK  242  A    between atoms: _626  and  _628
REMARK  243  A    between atoms: _628  and  _629
REMARK  244  A    between atoms: _628  and  _631
REMARK  245  A    between atoms: _631  and  _632
REMARK  246  A    between atoms: _637  and  _639
REMARK  247  A    between atoms: _639  and  _640
REMARK  248  A    between atoms: _643  and  _645
REMARK  249  A    between atoms: _645  and  _646
REMARK  250  A    between atoms: _645  and  _648
REMARK  251  A    between atoms: _648  and  _649
REMARK  252  A    between atoms: _649  and  _650
REMARK  253  A    between atoms: _650  and  _651
REMARK  254  A    between atoms: _660  and  _662
REMARK  255  A    between atoms: _662  and  _663
REMARK  256  A    between atoms: _662  and  _665
REMARK  257  A    between atoms: _665  and  _666
REMARK  258  A    between atoms: _669  and  _671
REMARK  259  A    between atoms: _671  and  _672
REMARK  260  A    between atoms: _671  and  _674
REMARK  261  A    between atoms: _674  and  _675
REMARK  262  A    between atoms: _678  and  _680
REMARK  263  A    between atoms: _680  and  _681
REMARK  264  A    between atoms: _680  and  _683
REMARK  265  A    between atoms: _683  and  _684
REMARK                            x       y       z     vdW  Elec       q    Type
REMARK                         _______ _______ _______ _____ _____    ______ ____
ROOT
ATOM      1  CA  THR A   1      11.643  16.597  22.946  0.00  0.00    +0.160 C 
ENDROOT
BRANCH   1   2
ATOM      2  N   THR A   1      12.147  15.247  22.861  0.00  0.00    -0.237 NA
ATOM      3  H   THR A   1      11.481  14.486  22.618  0.00  0.00    +0.142 HD
ENDBRANCH   1   2
BRANCH   1   4
ATOM      4  C   THR A   1      11.538  17.109  24.378  0.00  0.00    +0.227 C 
ATOM      5  O   THR A   1      11.303  18.310  24.581  0.00  0.00    -0.287 OA
ENDBRANCH   1   4
BRANCH   1   6
ATOM      6  CB  THR A   1      10.259  16.766  22.272  0.00  0.00    +0.134 C 
ATOM      7  CG2 THR A   1      10.286  16.347  20.797  0.00  0.00    +0.034 C 
BRANCH   6   8
ATOM      8  OG1 THR A   1       9.273  16.020  22.985  0.00  0.00    -0.383 OA
ATOM      9  HG1 THR A   1       9.521  15.062  22.984  0.00  0.00    +0.210 HD
ENDBRANCH   6   8
ENDBRANCH   1   6
TORSDOF 4
REMARK  Name = ../refined-set-2016/1b9j/1b9j_pocket.pdb
REMARK  265 active torsions:
REMARK  status: ('A' for Active; 'I' for Inactive)
REMARK    1  A    between atoms: _1  and  _3
REMARK    2  A    between atoms: _3  and  _4
REMARK    3  A    between atoms: _3  and  _6
REMARK    4  A    between atoms: _6  and  _7
REMARK    5  A    between atoms: _12  and  _14
REMARK    6  A    between atoms: _14  and  _15
REMARK    7  A    between atoms: _17  and  _19
REMARK    8  A    between atoms: _19  and  _20
REMARK    9  A    between atoms: _19  and  _22
REMARK   10  A    between atoms: _22  and  _23
REMARK   11  A    between atoms: _25  and  _27
REMARK   12  A    between atoms: _27  and  _28
REMARK   13  A    between atoms: _27  and  _30
REMARK   14  A    between atoms: _30  and  _31
REMARK   15  A    between atoms: _31  and  _32
REMARK   16  A    between atoms: _37  and  _39
REMARK   17  A    between atoms: _39  and  _40
REMARK   18  A    between atoms: _39  and  _42
REMARK   19  A    between atoms: _42  and  _43
REMARK   20  A    between atoms: _46  and  _48
REMARK   21  A    between atoms: _48  and  _49
REMARK   22  A    between atoms: _48  and  _51
REMARK   23  A    between atoms: _51  and  _52
REMARK   24  A    between atoms: _52  and  _53
REMARK   25  A    between atoms: _56  and  _58
REMARK   26  A    between atoms: _58  and  _59
REMARK   27  A    between atoms: _61  and  _63
REMARK   28  A    between atoms: _63  and  _64
REMARK   29  A    between atoms: _63  and  _66
REMARK   30  A    between atoms: _70  and  _71
REMARK   31  A    between atoms: _76  and  _78
REMARK   32  A    between atoms: _78  and  _79
REMARK   33  A    between atoms: _78  and  _81
REMARK   34  A    between atoms: _81  and  _82
REMARK   35  A    between atoms: _82  and  _83
REMARK   36  A    between atoms: _86  and  _88
REMARK   37  A    between atoms: _88  and  _89
REMARK   38  A    between atoms: _88  and  _91
REMARK   39  A    between atoms: _91  and  _92
REMARK   40  A    between atoms: _94  and  _96
REMARK   41  A    between atoms: _96  and  _97
REMARK   42  A    between atoms: _96  and  _99
REMARK   43  A    between atoms: _99  and  _100
REMARK   44  A    between atoms: _105  and  _107
REMARK   45  A    between atoms: _107  and  _108
REMARK   46  A    between atoms: _107  and  _110
REMARK   47  A    between atoms: _110  and  _111
REMARK   48  A    between atoms: _111  and  _112
REMARK   49  A    between atoms: _112  and  _113
REMARK   50  A    between atoms: _123  and  _124
REMARK   51  A    between atoms: _129  and  _131
REMARK   52  A    between atoms: _131  and  _132
REMARK   53  A    between atoms: _131  and  _134
REMARK   54  A    between atoms: _134  and  _135
REMARK   55  A    between atoms: _140  and  _141
REMARK   56  A    between atoms: _143  and  _145
REMARK   57  A    between atoms: _145  and  _146
REMARK   58  A    between atoms: _145  and  _148
REMARK   59  A    between atoms: _148  and  _149
REMARK   60  A    between atoms: _154  and  _155
REMARK   61  A    between atoms: _157  and  _159
REMARK   62  A    between atoms: _159  and  _160
REMARK   63  A    between atoms: _159  and  _162
REMARK   64  A    between atoms: _165  and  _167
REMARK   65  A    between atoms: _167  and  _168
REMARK   66  A    between atoms: _167  and  _170
REMARK   67  A    between atoms: _170  and  _171
REMARK   68  A    between atoms: _177  and  _178
REMARK   69  A    between atoms: _183  and  _185
REMARK   70  A    between atoms: _185  and  _186
REMARK   71  A    between atoms: _185  and  _188
REMARK   72  A    between atoms: _188  and  _189
REMARK   73  A    between atoms: _191  and  _193
REMARK   74  A    between atoms: _193  and  _194
REMARK   75  A    between atoms: _193  and  _196
REMARK   76  A    between atoms: _196  and  _197
REMARK   77  A    between atoms: _197  and  _198
REMARK   78  A    between atoms: _201  and  _203
REMARK   79  A    between atoms: _203  and  _204
REMARK   80  A    between atoms: _203  and  _206
REMARK   81  A    between atoms: _206  and  _207
REMARK   82  A    between atoms: _212  and  _213
REMARK   83  A    between atoms: _215  and  _217
REMARK   84  A    between atoms: _217  and  _218
REMARK   85  A    between atoms: _217  and  _220
REMARK   86  A    between atoms: _220  and  _221
REMARK   87  A    between atoms: _226  and  _228
REMARK   88  A    between atoms: _228  and  _229
REMARK   89  A    between atoms: _228  and  _231
REMARK   90  A    between atoms: _231  and  _232
REMARK   91  A    between atoms: _237  and  _239
REMARK   92  A    between atoms: _239  and  _240
REMARK   93  A    between atoms: _239  and  _242
REMARK   94  A    between atoms: _242  and  _243
REMARK   95  A    between atoms: _243  and  _244
REMARK   96  A    between atoms: _246  and  _248
REMARK   97  A    between atoms: _248  and  _249
REMARK   98  A    between atoms: _248  and  _251
REMARK   99  A    between atoms: _251  and  _252
REMARK  100  A    between atoms: _257  and  _258
REMARK  101  A    between atoms: _260  and  _262
REMARK  102  A    between atoms: _262  and  _263
REMARK  103  A    between atoms: _262  and  _265
REMARK  104  A    between atoms: _265  and  _266
REMARK  105  A    between atoms: _269  and  _271
REMARK  106  A    between atoms: _271  and  _272
REMARK  107  A    between atoms: _271  and  _274
REMARK  108  A    between atoms: _274  and  _275
REMARK  109  A    between atoms: _275  and  _492
REMARK  110  A    between atoms: _276  and  _278
REMARK  111  A    between atoms: _278  and  _279
REMARK  112  A    between atoms: _278  and  _281
REMARK  113  A    between atoms: _281  and  _282
REMARK  114  A    between atoms: _285  and  _287
REMARK  115  A    between atoms: _287  and  _288
REMARK  116  A    between atoms: _287  and  _290
REMARK  117  A    between atoms: _290  and  _291
REMARK  118  A    between atoms: _296  and  _297
REMARK  119  A    between atoms: _299  and  _301
REMARK  120  A    between atoms: _301  and  _302
REMARK  121  A    between atoms: _301  and  _304
REMARK  122  A    between atoms: _304  and  _305
REMARK  123  A    between atoms: _310  and  _311
REMARK  124  A    between atoms: _313  and  _315
REMARK  125  A    between atoms: _315  and  _316
REMARK  126  A    between atoms: _315  and  _318
REMARK  127  A    between atoms: _318  and  _319
REMARK  128  A    between atoms: _319  and  _320
REMARK  129  A    between atoms: _323  and  _325
REMARK  130  A    between atoms: _325  and  _326
REMARK  131  A    between atoms: _325  and  _328
REMARK  132  A    between atoms: _328  and  _329
REMARK  133  A    between atoms: _334  and  _335
REMARK  134  A    between atoms: _337  and  _339
REMARK  135  A    between atoms: _339  and  _340
REMARK  136  A    between atoms: _339  and  _342
REMARK  137  A    between atoms: _342  and  _343
REMARK  138  A    between atoms: _348  and  _350
REMARK  139  A    between atoms: _350  and  _351
REMARK  140  A    between atoms: _350  and  _353
REMARK  141  A    between atoms: _353  and  _354
REMARK  142  A    between atoms: _357  and  _359
REMARK  143  A    between atoms: _359  and  _360
REMARK  144  A    between atoms: _359  and  _362
REMARK  145  A    between atoms: _362  and  _363
REMARK  146  A    between atoms: _368  and  _370
REMARK  147  A    between atoms: _370  and  _371
REMARK  148  A    between atoms: _370  and  _373
REMARK  149  A    between atoms: _373  and  _374
REMARK  150  A    between atoms: _384  and  _386
REMARK  151  A    between atoms: _386  and  _387
REMARK  152  A    between atoms: _386  and  _389
REMARK  153  A    between atoms: _389  and  _390
REMARK  154  A    between atoms: _396  and  _398
REMARK  155  A    between atoms: _398  and  _399
REMARK  156  A    between atoms: _398  and  _401
REMARK  157  A    between atoms: _401  and  _402
REMARK  158  A    between atoms: _405  and  _407
REMARK  159  A    between atoms: _407  and  _408
REMARK  160  A    between atoms: _407  and  _410
REMARK  161  A    between atoms: _410  and  _411
REMARK  162  A    between atoms: _414  and  _416
REMARK  163  A    between atoms: _416  and  _417
REMARK  164  A    between atoms: _416  and  _419
REMARK  165  A    between atoms: _419  and  _420
REMARK  166  A    between atoms: _420  and  _421
REMARK  167  A    between atoms: _421  and  _422
REMARK  168  A    between atoms: _431  and  _433
REMARK  169  A    between atoms: _433  and  _434
REMARK  170  A    between atoms: _433  and  _436
REMARK  171  A    between atoms: _436  and  _437
REMARK  172  A    between atoms: _442  and  _444
REMARK  173  A    between atoms: _444  and  _445
REMARK  174  A    between atoms: _444  and  _447
REMARK  175  A    between atoms: _447  and  _448
REMARK  176  A    between atoms: _448  and  _449
REMARK  177  A    between atoms: _449  and  _450
REMARK  178  A    between atoms: _459  and  _461
REMARK  179  A    between atoms: _461  and  _462
REMARK  180  A    between atoms: _465  and  _467
REMARK  181  A    between atoms: _467  and  _468
REMARK  182  A    between atoms: _470  and  _472
REMARK  183  A    between atoms: _472  and  _473
REMARK  184  A    between atoms: _472  and  _475
REMARK  185  A    between atoms: _475  and  _476
REMARK  186  A    between atoms: _486  and  _488
REMARK  187  A    between atoms: _488  and  _489
REMARK  188  A    between atoms: _488  and  _491
REMARK  189  A    between atoms: _491  and  _492
REMARK  190  A    between atoms: _493  and  _495
REMARK  191  A    between atoms: _495  and  _496
REMARK  192  A    between atoms: _499  and  _501
REMARK  193  A    between atoms: _501  and  _502
REMARK  194  A    between atoms: _501  and  _504
REMARK  195  A    between atoms: _504  and  _505
REMARK  196  A    between atoms: _508  and  _510
REMARK  197  A    between atoms: _510  and  _511
REMARK  198  A    between atoms: _510  and  _513
REMARK  199  A    between atoms: _513  and  _514
REMARK  200  A    between atoms: _519  and  _520
REMARK  201  A    between atoms: _522  and  _524
REMARK  202  A    between atoms: _524  and  _525
REMARK  203  A    between atoms: _524  and  _527
REMARK  204  A    between atoms: _527  and  _528
REMARK  205  A    between atoms: _530  and  _532
REMARK  206  A    between atoms: _532  and  _533
REMARK  207  A    between atoms: _532  and  _535
REMARK  208  A    between atoms: _535  and  _536
REMARK  209  A    between atoms: _542  and  _544
REMARK  210  A    between atoms: _544  and  _545
REMARK  211  A    between atoms: _544  and  _547
REMARK  212  A    between atoms: _547  and  _548
REMARK  213  A    between atoms: _551  and  _553
REMARK  214  A    between atoms: _553  and  _554
REMARK  215  A    between atoms: _553  and  _556
REMARK  216  A    between atoms: _556  and  _557
REMARK  217  A    between atoms: _559  and  _561
REMARK  218  A    between atoms: _561  and  _562
REMARK  219  A    between atoms: _561  and  _564
REMARK  220  A    between atoms: _564  and  _565
REMARK  221  A    between atoms: _570  and  _572
REMARK  222  A    between atoms: _572  and  _573
REMARK  223  A    between atoms: _572  and  _575
REMARK  224  A    between atoms: _575  and  _576
REMARK  225  A    between atoms: _581  and  _583
REMARK  226  A    between atoms: _583  and  _584
REMARK  227  A    between atoms: _583  and  _586
REMARK  228  A    between atoms: _586  and  _587
REMARK  229  A    between atoms: _590  and  _592
REMARK  230  A    between atoms: _592  and  _593
REMARK  231  A    between atoms: _592  and  _595
REMARK  232  A    between atoms: _595  and  _596
REMARK  233  A    between atoms: _601  and  _602
REMARK  234  A    between atoms: _604  and  _606
REMARK  235  A    between atoms: _606  and  _607
REMARK  236  A    between atoms: _606  and  _609
REMARK  237  A    between atoms: _609  and  _610
REMARK  238  A    between atoms: _615  and  _616
REMARK  239  A    between atoms: _618  and  _620
REMARK  240  A    between atoms: _620  and  _621
REMARK  241  A    between atoms: _620  and  _623
REMARK  242  A    between atoms: _626  and  _628
REMARK  243  A    between atoms: _628  and  _629
REMARK  244  A    between atoms: _628  and  _631
REMARK  245  A    between atoms: _631  and  _632
REMARK  246  A    between atoms: _637  and  _639
REMARK  247  A    between atoms: _639  and  _640
REMARK  248  A    between atoms: _643  and  _645
REMARK  249  A    between atoms: _645  and  _646
REMARK  250  A    between atoms: _645  and  _648
REMARK  251  A    between atoms: _648  and  _649
REMARK  252  A    between atoms: _649  and  _650
REMARK  253  A    between atoms: _650  and  _651
REMARK  254  A    between atoms: _660  and  _662
REMARK  255  A    between atoms: _662  and  _663
REMARK  256  A    between atoms: _662  and  _665
REMARK  257  A    between atoms: _665  and  _666
REMARK  258  A    between atoms: _669  and  _671
REMARK  259  A    between atoms: _671  and  _672
REMARK  260  A    between atoms: _671  and  _674
REMARK  261  A    between atoms: _674  and  _675
REMARK  262  A    between atoms: _678  and  _680
REMARK  263  A    between atoms: _680  and  _681
REMARK  264  A    between atoms: _680  and  _683
REMARK  265  A    between atoms: _683  and  _684
REMARK                            x       y       z     vdW  Elec       q    Type
REMARK                         _______ _______ _______ _____ _____    ______ ____
ROOT
ATOM      1  C   ASN A   2      11.067  21.342  22.153  0.00  0.00    +0.241 C 
ATOM      2  N   ASN A   3      11.831  21.638  23.214  0.00  0.00    -0.297 N 
ATOM      3  H   ASN A   3      12.831  21.895  23.091  0.00  0.00    +0.150 HD
ATOM      4  O   ASN A   2       9.841  21.126  22.239  0.00  0.00    -0.273 OA
ENDROOT
BRANCH   2   5
ATOM      5  CA  ASN A   3      11.233  21.593  24.549  0.00  0.00    +0.158 C 
BRANCH   5   6
ATOM      6  C   ASN A   3      10.552  22.908  24.936  0.00  0.00    +0.241 C 
ATOM      7  O   ASN A   3      11.088  23.737  25.673  0.00  0.00    -0.273 OA
ATOM      8  N   THR A   4       9.290  22.998  24.495  0.00  0.00    -0.296 N 
ATOM      9  H   THR A   4       8.889  22.234  23.915  0.00  0.00    +0.150 HD
BRANCH   8  10
ATOM     10  CA  THR A   4       8.473  24.165  24.825  0.00  0.00    +0.164 C 
BRANCH  10  11
ATOM     11  CB  THR A   4       7.507  24.551  23.694  0.00  0.00    +0.136 C 
ATOM     12  CG2 THR A   4       8.312  25.261  22.599  0.00  0.00    +0.034 C 
BRANCH  11  13
ATOM     13  OG1 THR A   4       6.858  23.422  23.124  0.00  0.00    -0.382 OA
ATOM     14  HG1 THR A   4       6.337  22.954  23.824  0.00  0.00    +0.210 HD
ENDBRANCH  11  13
ENDBRANCH  10  11
BRANCH  10  15
ATOM     15  C   THR A   4       7.718  23.942  26.120  0.00  0.00    +0.229 C 
ATOM     16  O   THR A   4       7.088  24.876  26.640  0.00  0.00    -0.286 OA
ENDBRANCH  10  15
ENDBRANCH   8  10
ENDBRANCH   5   6
BRANCH   5  17
ATOM     17  CB  ASN A   3      12.282  21.177  25.577  0.00  0.00    +0.114 C 
BRANCH  17  18
ATOM     18  CG  ASN A   3      11.744  20.854  26.950  0.00  0.00    +0.222 C 
ATOM     19  ND2 ASN A   3      12.556  20.066  27.672  0.00  0.00    -0.329 N 
ATOM     20 HD21 ASN A   3      12.264  19.746  28.618  0.00  0.00    +0.145 HD
ATOM     21 HD22 ASN A   3      13.477  19.775  27.286  0.00  0.00    +0.145 HD
ATOM     22  OD1 ASN A   3      10.659  21.213  27.372  0.00  0.00    -0.275 OA
ENDBRANCH  17  18
ENDBRANCH   5  17
ENDBRANCH   2   5
BRANCH   1  23
ATOM     23  CA  ASN A   2      11.724  21.354  20.778  0.00  0.00    +0.158 C 
BRANCH  23  25
ATOM     24  C   SER A   1      13.755  22.742  20.673  0.00  0.00    +0.241 C 
ATOM     25  N   ASN A   2      13.172  21.533  20.842  0.00  0.00    -0.297 N 
ATOM     26  H   ASN A   2      13.774  20.705  21.023  0.00  0.00    +0.150 HD
ATOM     27  O   SER A   1      13.064  23.741  20.434  0.00  0.00    -0.274 OA
BRANCH  24  28
ATOM     28  CA  SER A   1      15.269  22.868  20.811  0.00  0.00    +0.174 C 
BRANCH  28  29
ATOM     29  N   SER A   1      15.815  21.716  21.528  0.00  0.00    -0.236 NA
ATOM     30  H   SER A   1      16.469  21.090  21.017  0.00  0.00    +0.142 HD
ENDBRANCH  28  29
BRANCH  28  31
ATOM     31  CB  SER A   1      15.944  22.993  19.432  0.00  0.00    +0.163 C 
BRANCH  31  32
ATOM     32  OG  SER A   1      15.676  21.872  18.570  0.00  0.00    -0.380 OA
ATOM     33  H   SER A   1      14.700  21.797  18.422  0.00  0.00    +0.211 HD
ENDBRANCH  31  32
ENDBRANCH  28  31
ENDBRANCH  24  28
ENDBRANCH  23  25
BRANCH  23  34
ATOM     34  CB  ASN A   2      11.420  19.986  20.129  0.00  0.00    +0.114 C 
BRANCH  34  35
ATOM     35  CG  ASN A   2      11.903  19.817  18.703  0.00  0.00    +0.222 C 
ATOM     36  OD1 ASN A   2      12.750  18.933  18.467  0.00  0.00    -0.275 OA
ATOM     37  ND2 ASN A   2      11.392  20.568  17.734  0.00  0.00    -0.329 N 
ATOM     38 HD21 ASN A   2      10.687  21.298  17.959  0.00  0.00    +0.145 HD
ATOM     39 HD22 ASN A   2      11.697  20.426  16.750  0.00  0.00    +0.145 HD
ENDBRANCH  34  35
ENDBRANCH  23  34
ENDBRANCH   1  23
TORSDOF 16
REMARK  Name = ../refined-set-2016/1b9j/1b9j_pocket.pdb
REMARK  265 active torsions:
REMARK  status: ('A' for Active; 'I' for Inactive)
REMARK    1  A    between atoms: _1  and  _3
REMARK    2  A    between atoms: _3  and  _4
REMARK    3  A    between atoms: _3  and  _6
REMARK    4  A    between atoms: _6  and  _7
REMARK    5  A    between atoms: _12  and  _14
REMARK    6  A    between atoms: _14  and  _15
REMARK    7  A    between atoms: _17  and  _19
REMARK    8  A    between atoms: _19  and  _20
REMARK    9  A    between atoms: _19  and  _22
REMARK   10  A    between atoms: _22  and  _23
REMARK   11  A    between atoms: _25  and  _27
REMARK   12  A    between atoms: _27  and  _28
REMARK   13  A    between atoms: _27  and  _30
REMARK   14  A    between atoms: _30  and  _31
REMARK   15  A    between atoms: _31  and  _32
REMARK   16  A    between atoms: _37  and  _39
REMARK   17  A    between atoms: _39  and  _40
REMARK   18  A    between atoms: _39  and  _42
REMARK   19  A    between atoms: _42  and  _43
REMARK   20  A    between atoms: _46  and  _48
REMARK   21  A    between atoms: _48  and  _49
REMARK   22  A    between atoms: _48  and  _51
REMARK   23  A    between atoms: _51  and  _52
REMARK   24  A    between atoms: _52  and  _53
REMARK   25  A    between atoms: _56  and  _58
REMARK   26  A    between atoms: _58  and  _59
REMARK   27  A    between atoms: _61  and  _63
REMARK   28  A    between atoms: _63  and  _64
REMARK   29  A    between atoms: _63  and  _66
REMARK   30  A    between atoms: _70  and  _71
REMARK   31  A    between atoms: _76  and  _78
REMARK   32  A    between atoms: _78  and  _79
REMARK   33  A    between atoms: _78  and  _81
REMARK   34  A    between atoms: _81  and  _82
REMARK   35  A    between atoms: _82  and  _83
REMARK   36  A    between atoms: _86  and  _88
REMARK   37  A    between atoms: _88  and  _89
REMARK   38  A    between atoms: _88  and  _91
REMARK   39  A    between atoms: _91  and  _92
REMARK   40  A    between atoms: _94  and  _96
REMARK   41  A    between atoms: _96  and  _97
REMARK   42  A    between atoms: _96  and  _99
REMARK   43  A    between atoms: _99  and  _100
REMARK   44  A    between atoms: _105  and  _107
REMARK   45  A    between atoms: _107  and  _108
REMARK   46  A    between atoms: _107  and  _110
REMARK   47  A    between atoms: _110  and  _111
REMARK   48  A    between atoms: _111  and  _112
REMARK   49  A    between atoms: _112  and  _113
REMARK   50  A    between atoms: _123  and  _124
REMARK   51  A    between atoms: _129  and  _131
REMARK   52  A    between atoms: _131  and  _132
REMARK   53  A    between atoms: _131  and  _134
REMARK   54  A    between atoms: _134  and  _135
REMARK   55  A    between atoms: _140  and  _141
REMARK   56  A    between atoms: _143  and  _145
REMARK   57  A    between atoms: _145  and  _146
REMARK   58  A    between atoms: _145  and  _148
REMARK   59  A    between atoms: _148  and  _149
REMARK   60  A    between atoms: _154  and  _155
REMARK   61  A    between atoms: _157  and  _159
REMARK   62  A    between atoms: _159  and  _160
REMARK   63  A    between atoms: _159  and  _162
REMARK   64  A    between atoms: _165  and  _167
REMARK   65  A    between atoms: _167  and  _168
REMARK   66  A    between atoms: _167  and  _170
REMARK   67  A    between atoms: _170  and  _171
REMARK   68  A    between atoms: _177  and  _178
REMARK   69  A    between atoms: _183  and  _185
REMARK   70  A    between atoms: _185  and  _186
REMARK   71  A    between atoms: _185  and  _188
REMARK   72  A    between atoms: _188  and  _189
REMARK   73  A    between atoms: _191  and  _193
REMARK   74  A    between atoms: _193  and  _194
REMARK   75  A    between atoms: _193  and  _196
REMARK   76  A    between atoms: _196  and  _197
REMARK   77  A    between atoms: _197  and  _198
REMARK   78  A    between atoms: _201  and  _203
REMARK   79  A    between atoms: _203  and  _204
REMARK   80  A    between atoms: _203  and  _206
REMARK   81  A    between atoms: _206  and  _207
REMARK   82  A    between atoms: _212  and  _213
REMARK   83  A    between atoms: _215  and  _217
REMARK   84  A    between atoms: _217  and  _218
REMARK   85  A    between atoms: _217  and  _220
REMARK   86  A    between atoms: _220  and  _221
REMARK   87  A    between atoms: _226  and  _228
REMARK   88  A    between atoms: _228  and  _229
REMARK   89  A    between atoms: _228  and  _231
REMARK   90  A    between atoms: _231  and  _232
REMARK   91  A    between atoms: _237  and  _239
REMARK   92  A    between atoms: _239  and  _240
REMARK   93  A    between atoms: _239  and  _242
REMARK   94  A    between atoms: _242  and  _243
REMARK   95  A    between atoms: _243  and  _244
REMARK   96  A    between atoms: _246  and  _248
REMARK   97  A    between atoms: _248  and  _249
REMARK   98  A    between atoms: _248  and  _251
REMARK   99  A    between atoms: _251  and  _252
REMARK  100  A    between atoms: _257  and  _258
REMARK  101  A    between atoms: _260  and  _262
REMARK  102  A    between atoms: _262  and  _263
REMARK  103  A    between atoms: _262  and  _265
REMARK  104  A    between atoms: _265  and  _266
REMARK  105  A    between atoms: _269  and  _271
REMARK  106  A    between atoms: _271  and  _272
REMARK  107  A    between atoms: _271  and  _274
REMARK  108  A    between atoms: _274  and  _275
REMARK  109  A    between atoms: _275  and  _492
REMARK  110  A    between atoms: _276  and  _278
REMARK  111  A    between atoms: _278  and  _279
REMARK  112  A    between atoms: _278  and  _281
REMARK  113  A    between atoms: _281  and  _282
REMARK  114  A    between atoms: _285  and  _287
REMARK  115  A    between atoms: _287  and  _288
REMARK  116  A    between atoms: _287  and  _290
REMARK  117  A    between atoms: _290  and  _291
REMARK  118  A    between atoms: _296  and  _297
REMARK  119  A    between atoms: _299  and  _301
REMARK  120  A    between atoms: _301  and  _302
REMARK  121  A    between atoms: _301  and  _304
REMARK  122  A    between atoms: _304  and  _305
REMARK  123  A    between atoms: _310  and  _311
REMARK  124  A    between atoms: _313  and  _315
REMARK  125  A    between atoms: _315  and  _316
REMARK  126  A    between atoms: _315  and  _318
REMARK  127  A    between atoms: _318  and  _319
REMARK  128  A    between atoms: _319  and  _320
REMARK  129  A    between atoms: _323  and  _325
REMARK  130  A    between atoms: _325  and  _326
REMARK  131  A    between atoms: _325  and  _328
REMARK  132  A    between atoms: _328  and  _329
REMARK  133  A    between atoms: _334  and  _335
REMARK  134  A    between atoms: _337  and  _339
REMARK  135  A    between atoms: _339  and  _340
REMARK  136  A    between atoms: _339  and  _342
REMARK  137  A    between atoms: _342  and  _343
REMARK  138  A    between atoms: _348  and  _350
REMARK  139  A    between atoms: _350  and  _351
REMARK  140  A    between atoms: _350  and  _353
REMARK  141  A    between atoms: _353  and  _354
REMARK  142  A    between atoms: _357  and  _359
REMARK  143  A    between atoms: _359  and  _360
REMARK  144  A    between atoms: _359  and  _362
REMARK  145  A    between atoms: _362  and  _363
REMARK  146  A    between atoms: _368  and  _370
REMARK  147  A    between atoms: _370  and  _371
REMARK  148  A    between atoms: _370  and  _373
REMARK  149  A    between atoms: _373  and  _374
REMARK  150  A    between atoms: _384  and  _386
REMARK  151  A    between atoms: _386  and  _387
REMARK  152  A    between atoms: _386  and  _389
REMARK  153  A    between atoms: _389  and  _390
REMARK  154  A    between atoms: _396  and  _398
REMARK  155  A    between atoms: _398  and  _399
REMARK  156  A    between atoms: _398  and  _401
REMARK  157  A    between atoms: _401  and  _402
REMARK  158  A    between atoms: _405  and  _407
REMARK  159  A    between atoms: _407  and  _408
REMARK  160  A    between atoms: _407  and  _410
REMARK  161  A    between atoms: _410  and  _411
REMARK  162  A    between atoms: _414  and  _416
REMARK  163  A    between atoms: _416  and  _417
REMARK  164  A    between atoms: _416  and  _419
REMARK  165  A    between atoms: _419  and  _420
REMARK  166  A    between atoms: _420  and  _421
REMARK  167  A    between atoms: _421  and  _422
REMARK  168  A    between atoms: _431  and  _433
REMARK  169  A    between atoms: _433  and  _434
REMARK  170  A    between atoms: _433  and  _436
REMARK  171  A    between atoms: _436  and  _437
REMARK  172  A    between atoms: _442  and  _444
REMARK  173  A    between atoms: _444  and  _445
REMARK  174  A    between atoms: _444  and  _447
REMARK  175  A    between atoms: _447  and  _448
REMARK  176  A    between atoms: _448  and  _449
REMARK  177  A    between atoms: _449  and  _450
REMARK  178  A    between atoms: _459  and  _461
REMARK  179  A    between atoms: _461  and  _462
REMARK  180  A    between atoms: _465  and  _467
REMARK  181  A    between atoms: _467  and  _468
REMARK  182  A    between atoms: _470  and  _472
REMARK  183  A    between atoms: _472  and  _473
REMARK  184  A    between atoms: _472  and  _475
REMARK  185  A    between atoms: _475  and  _476
REMARK  186  A    between atoms: _486  and  _488
REMARK  187  A    between atoms: _488  and  _489
REMARK  188  A    between atoms: _488  and  _491
REMARK  189  A    between atoms: _491  and  _492
REMARK  190  A    between atoms: _493  and  _495
REMARK  191  A    between atoms: _495  and  _496
REMARK  192  A    between atoms: _499  and  _501
REMARK  193  A    between atoms: _501  and  _502
REMARK  194  A    between atoms: _501  and  _504
REMARK  195  A    between atoms: _504  and  _505
REMARK  196  A    between atoms: _508  and  _510
REMARK  197  A    between atoms: _510  and  _511
REMARK  198  A    between atoms: _510  and  _513
REMARK  199  A    between atoms: _513  and  _514
REMARK  200  A    between atoms: _519  and  _520
REMARK  201  A    between atoms: _522  and  _524
REMARK  202  A    between atoms: _524  and  _525
REMARK  203  A    between atoms: _524  and  _527
REMARK  204  A    between atoms: _527  and  _528
REMARK  205  A    between atoms: _530  and  _532
REMARK  206  A    between atoms: _532  and  _533
REMARK  207  A    between atoms: _532  and  _535
REMARK  208  A    between atoms: _535  and  _536
REMARK  209  A    between atoms: _542  and  _544
REMARK  210  A    between atoms: _544  and  _545
REMARK  211  A    between atoms: _544  and  _547
REMARK  212  A    between atoms: _547  and  _548
REMARK  213  A    between atoms: _551  and  _553
REMARK  214  A    between atoms: _553  and  _554
REMARK  215  A    between atoms: _553  and  _556
REMARK  216  A    between atoms: _556  and  _557
REMARK  217  A    between atoms: _559  and  _561
REMARK  218  A    between atoms: _561  and  _562
REMARK  219  A    between atoms: _561  and  _564
REMARK  220  A    between atoms: _564  and  _565
REMARK  221  A    between atoms: _570  and  _572
REMARK  222  A    between atoms: _572  and  _573
REMARK  223  A    between atoms: _572  and  _575
REMARK  224  A    between atoms: _575  and  _576
REMARK  225  A    between atoms: _581  and  _583
REMARK  226  A    between atoms: _583  and  _584
REMARK  227  A    between atoms: _583  and  _586
REMARK  228  A    between atoms: _586  and  _587
REMARK  229  A    between atoms: _590  and  _592
REMARK  230  A    between atoms: _592  and  _593
REMARK  231  A    between atoms: _592  and  _595
REMARK  232  A    between atoms: _595  and  _596
REMARK  233  A    between atoms: _601  and  _602
REMARK  234  A    between atoms: _604  and  _606
REMARK  235  A    between atoms: _606  and  _607
REMARK  236  A    between atoms: _606  and  _609
REMARK  237  A    between atoms: _609  and  _610
REMARK  238  A    between atoms: _615  and  _616
REMARK  239  A    between atoms: _618  and  _620
REMARK  240  A    between atoms: _620  and  _621
REMARK  241  A    between atoms: _620  and  _623
REMARK  242  A    between atoms: _626  and  _628
REMARK  243  A    between atoms: _628  and  _629
REMARK  244  A    between atoms: _628  and  _631
REMARK  245  A    between atoms: _631  and  _632
REMARK  246  A    between atoms: _637  and  _639
REMARK  247  A    between atoms: _639  and  _640
REMARK  248  A    between atoms: _643  and  _645
REMARK  249  A    between atoms: _645  and  _646
REMARK  250  A    between atoms: _645  and  _648
REMARK  251  A    between atoms: _648  and  _649
REMARK  252  A    between atoms: _649  and  _650
REMARK  253  A    between atoms: _650  and  _651
REMARK  254  A    between atoms: _660  and  _662
REMARK  255  A    between atoms: _662  and  _663
REMARK  256  A    between atoms: _662  and  _665
REMARK  257  A    between atoms: _665  and  _666
REMARK  258  A    between atoms: _669  and  _671
REMARK  259  A    between atoms: _671  and  _672
REMARK  260  A    between atoms: _671  and  _674
REMARK  261  A    between atoms: _674  and  _675
REMARK  262  A    between atoms: _678  and  _680
REMARK  263  A    between atoms: _680  and  _681
REMARK  264  A    between atoms: _680  and  _683
REMARK  265  A    between atoms: _683  and  _684
REMARK                            x       y       z     vdW  Elec       q    Type
REMARK                         _______ _______ _______ _____ _____    ______ ____
ROOT
ATOM      1  CG  TYR A   1      -7.632  13.118  22.320  0.00  0.00    -0.020 A 
ATOM      2  CD2 TYR A   1      -8.309  14.289  22.621  0.00  0.00    -0.001 A 
ATOM      3  CE2 TYR A   1      -8.490  15.298  21.687  0.00  0.00    +0.036 A 
ATOM      4  CZ  TYR A   1      -8.008  15.126  20.410  0.00  0.00    +0.134 A 
ATOM      5  CE1 TYR A   1      -7.334  13.983  20.077  0.00  0.00    +0.036 A 
ATOM      6  CD1 TYR A   1      -7.155  12.995  21.043  0.00  0.00    -0.001 A 
ENDROOT
BRANCH   4   7
ATOM      7  OH  TYR A   1      -8.196  16.102  19.448  0.00  0.00    -0.506 OA
ATOM      8  HH  TYR A   1      -7.785  15.808  18.597  0.00  0.00    +0.292 HD
ENDBRANCH   4   7
BRANCH   1   9
ATOM      9  CB  TYR A   1      -7.448  12.042  23.373  0.00  0.00    +0.051 C 
BRANCH   9  10
ATOM     10  CA  TYR A   1      -6.067  11.816  23.974  0.00  0.00    +0.137 C 
BRANCH  10  11
ATOM     11  N   TYR A   1      -5.634  12.984  24.783  0.00  0.00    -0.239 NA
ATOM     12  H   TYR A   1      -4.984  13.695  24.391  0.00  0.00    +0.142 HD
ENDBRANCH  10  11
BRANCH  10  13
ATOM     13  C   TYR A   1      -5.043  11.517  22.885  0.00  0.00    +0.224 C 
ATOM     14  O   TYR A   1      -4.248  12.397  22.585  0.00  0.00    -0.287 OA
ENDBRANCH  10  13
ENDBRANCH   9  10
ENDBRANCH   1   9
TORSDOF 5
REMARK  Name = ../refined-set-2016/1b9j/1b9j_pocket.pdb
REMARK  265 active torsions:
REMARK  status: ('A' for Active; 'I' for Inactive)
REMARK    1  A    between atoms: _1  and  _3
REMARK    2  A    between atoms: _3  and  _4
REMARK    3  A    between atoms: _3  and  _6
REMARK    4  A    between atoms: _6  and  _7
REMARK    5  A    between atoms: _12  and  _14
REMARK    6  A    between atoms: _14  and  _15
REMARK    7  A    between atoms: _17  and  _19
REMARK    8  A    between atoms: _19  and  _20
REMARK    9  A    between atoms: _19  and  _22
REMARK   10  A    between atoms: _22  and  _23
REMARK   11  A    between atoms: _25  and  _27
REMARK   12  A    between atoms: _27  and  _28
REMARK   13  A    between atoms: _27  and  _30
REMARK   14  A    between atoms: _30  and  _31
REMARK   15  A    between atoms: _31  and  _32
REMARK   16  A    between atoms: _37  and  _39
REMARK   17  A    between atoms: _39  and  _40
REMARK   18  A    between atoms: _39  and  _42
REMARK   19  A    between atoms: _42  and  _43
REMARK   20  A    between atoms: _46  and  _48
REMARK   21  A    between atoms: _48  and  _49
REMARK   22  A    between atoms: _48  and  _51
REMARK   23  A    between atoms: _51  and  _52
REMARK   24  A    between atoms: _52  and  _53
REMARK   25  A    between atoms: _56  and  _58
REMARK   26  A    between atoms: _58  and  _59
REMARK   27  A    between atoms: _61  and  _63
REMARK   28  A    between atoms: _63  and  _64
REMARK   29  A    between atoms: _63  and  _66
REMARK   30  A    between atoms: _70  and  _71
REMARK   31  A    between atoms: _76  and  _78
REMARK   32  A    between atoms: _78  and  _79
REMARK   33  A    between atoms: _78  and  _81
REMARK   34  A    between atoms: _81  and  _82
REMARK   35  A    between atoms: _82  and  _83
REMARK   36  A    between atoms: _86  and  _88
REMARK   37  A    between atoms: _88  and  _89
REMARK   38  A    between atoms: _88  and  _91
REMARK   39  A    between atoms: _91  and  _92
REMARK   40  A    between atoms: _94  and  _96
REMARK   41  A    between atoms: _96  and  _97
REMARK   42  A    between atoms: _96  and  _99
REMARK   43  A    between atoms: _99  and  _100
REMARK   44  A    between atoms: _105  and  _107
REMARK   45  A    between atoms: _107  and  _108
REMARK   46  A    between atoms: _107  and  _110
REMARK   47  A    between atoms: _110  and  _111
REMARK   48  A    between atoms: _111  and  _112
REMARK   49  A    between atoms: _112  and  _113
REMARK   50  A    between atoms: _123  and  _124
REMARK   51  A    between atoms: _129  and  _131
REMARK   52  A    between atoms: _131  and  _132
REMARK   53  A    between atoms: _131  and  _134
REMARK   54  A    between atoms: _134  and  _135
REMARK   55  A    between atoms: _140  and  _141
REMARK   56  A    between atoms: _143  and  _145
REMARK   57  A    between atoms: _145  and  _146
REMARK   58  A    between atoms: _145  and  _148
REMARK   59  A    between atoms: _148  and  _149
REMARK   60  A    between atoms: _154  and  _155
REMARK   61  A    between atoms: _157  and  _159
REMARK   62  A    between atoms: _159  and  _160
REMARK   63  A    between atoms: _159  and  _162
REMARK   64  A    between atoms: _165  and  _167
REMARK   65  A    between atoms: _167  and  _168
REMARK   66  A    between atoms: _167  and  _170
REMARK   67  A    between atoms: _170  and  _171
REMARK   68  A    between atoms: _177  and  _178
REMARK   69  A    between atoms: _183  and  _185
REMARK   70  A    between atoms: _185  and  _186
REMARK   71  A    between atoms: _185  and  _188
REMARK   72  A    between atoms: _188  and  _189
REMARK   73  A    between atoms: _191  and  _193
REMARK   74  A    between atoms: _193  and  _194
REMARK   75  A    between atoms: _193  and  _196
REMARK   76  A    between atoms: _196  and  _197
REMARK   77  A    between atoms: _197  and  _198
REMARK   78  A    between atoms: _201  and  _203
REMARK   79  A    between atoms: _203  and  _204
REMARK   80  A    between atoms: _203  and  _206
REMARK   81  A    between atoms: _206  and  _207
REMARK   82  A    between atoms: _212  and  _213
REMARK   83  A    between atoms: _215  and  _217
REMARK   84  A    between atoms: _217  and  _218
REMARK   85  A    between atoms: _217  and  _220
REMARK   86  A    between atoms: _220  and  _221
REMARK   87  A    between atoms: _226  and  _228
REMARK   88  A    between atoms: _228  and  _229
REMARK   89  A    between atoms: _228  and  _231
REMARK   90  A    between atoms: _231  and  _232
REMARK   91  A    between atoms: _237  and  _239
REMARK   92  A    between atoms: _239  and  _240
REMARK   93  A    between atoms: _239  and  _242
REMARK   94  A    between atoms: _242  and  _243
REMARK   95  A    between atoms: _243  and  _244
REMARK   96  A    between atoms: _246  and  _248
REMARK   97  A    between atoms: _248  and  _249
REMARK   98  A    between atoms: _248  and  _251
REMARK   99  A    between atoms: _251  and  _252
REMARK  100  A    between atoms: _257  and  _258
REMARK  101  A    between atoms: _260  and  _262
REMARK  102  A    between atoms: _262  and  _263
REMARK  103  A    between atoms: _262  and  _265
REMARK  104  A    between atoms: _265  and  _266
REMARK  105  A    between atoms: _269  and  _271
REMARK  106  A    between atoms: _271  and  _272
REMARK  107  A    between atoms: _271  and  _274
REMARK  108  A    between atoms: _274  and  _275
REMARK  109  A    between atoms: _275  and  _492
REMARK  110  A    between atoms: _276  and  _278
REMARK  111  A    between atoms: _278  and  _279
REMARK  112  A    between atoms: _278  and  _281
REMARK  113  A    between atoms: _281  and  _282
REMARK  114  A    between atoms: _285  and  _287
REMARK  115  A    between atoms: _287  and  _288
REMARK  116  A    between atoms: _287  and  _290
REMARK  117  A    between atoms: _290  and  _291
REMARK  118  A    between atoms: _296  and  _297
REMARK  119  A    between atoms: _299  and  _301
REMARK  120  A    between atoms: _301  and  _302
REMARK  121  A    between atoms: _301  and  _304
REMARK  122  A    between atoms: _304  and  _305
REMARK  123  A    between atoms: _310  and  _311
REMARK  124  A    between atoms: _313  and  _315
REMARK  125  A    between atoms: _315  and  _316
REMARK  126  A    between atoms: _315  and  _318
REMARK  127  A    between atoms: _318  and  _319
REMARK  128  A    between atoms: _319  and  _320
REMARK  129  A    between atoms: _323  and  _325
REMARK  130  A    between atoms: _325  and  _326
REMARK  131  A    between atoms: _325  and  _328
REMARK  132  A    between atoms: _328  and  _329
REMARK  133  A    between atoms: _334  and  _335
REMARK  134  A    between atoms: _337  and  _339
REMARK  135  A    between atoms: _339  and  _340
REMARK  136  A    between atoms: _339  and  _342
REMARK  137  A    between atoms: _342  and  _343
REMARK  138  A    between atoms: _348  and  _350
REMARK  139  A    between atoms: _350  and  _351
REMARK  140  A    between atoms: _350  and  _353
REMARK  141  A    between atoms: _353  and  _354
REMARK  142  A    between atoms: _357  and  _359
REMARK  143  A    between atoms: _359  and  _360
REMARK  144  A    between atoms: _359  and  _362
REMARK  145  A    between atoms: _362  and  _363
REMARK  146  A    between atoms: _368  and  _370
REMARK  147  A    between atoms: _370  and  _371
REMARK  148  A    between atoms: _370  and  _373
REMARK  149  A    between atoms: _373  and  _374
REMARK  150  A    between atoms: _384  and  _386
REMARK  151  A    between atoms: _386  and  _387
REMARK  152  A    between atoms: _386  and  _389
REMARK  153  A    between atoms: _389  and  _390
REMARK  154  A    between atoms: _396  and  _398
REMARK  155  A    between atoms: _398  and  _399
REMARK  156  A    between atoms: _398  and  _401
REMARK  157  A    between atoms: _401  and  _402
REMARK  158  A    between atoms: _405  and  _407
REMARK  159  A    between atoms: _407  and  _408
REMARK  160  A    between atoms: _407  and  _410
REMARK  161  A    between atoms: _410  and  _411
REMARK  162  A    between atoms: _414  and  _416
REMARK  163  A    between atoms: _416  and  _417
REMARK  164  A    between atoms: _416  and  _419
REMARK  165  A    between atoms: _419  and  _420
REMARK  166  A    between atoms: _420  and  _421
REMARK  167  A    between atoms: _421  and  _422
REMARK  168  A    between atoms: _431  and  _433
REMARK  169  A    between atoms: _433  and  _434
REMARK  170  A    between atoms: _433  and  _436
REMARK  171  A    between atoms: _436  and  _437
REMARK  172  A    between atoms: _442  and  _444
REMARK  173  A    between atoms: _444  and  _445
REMARK  174  A    between atoms: _444  and  _447
REMARK  175  A    between atoms: _447  and  _448
REMARK  176  A    between atoms: _448  and  _449
REMARK  177  A    between atoms: _449  and  _450
REMARK  178  A    between atoms: _459  and  _461
REMARK  179  A    between atoms: _461  and  _462
REMARK  180  A    between atoms: _465  and  _467
REMARK  181  A    between atoms: _467  and  _468
REMARK  182  A    between atoms: _470  and  _472
REMARK  183  A    between atoms: _472  and  _473
REMARK  184  A    between atoms: _472  and  _475
REMARK  185  A    between atoms: _475  and  _476
REMARK  186  A    between atoms: _486  and  _488
REMARK  187  A    between atoms: _488  and  _489
REMARK  188  A    between atoms: _488  and  _491
REMARK  189  A    between atoms: _491  and  _492
REMARK  190  A    between atoms: _493  and  _495
REMARK  191  A    between atoms: _495  and  _496
REMARK  192  A    between atoms: _499  and  _501
REMARK  193  A    between atoms: _501  and  _502
REMARK  194  A    between atoms: _501  and  _504
REMARK  195  A    between atoms: _504  and  _505
REMARK  196  A    between atoms: _508  and  _510
REMARK  197  A    between atoms: _510  and  _511
REMARK  198  A    between atoms: _510  and  _513
REMARK  199  A    between atoms: _513  and  _514
REMARK  200  A    between atoms: _519  and  _520
REMARK  201  A    between atoms: _522  and  _524
REMARK  202  A    between atoms: _524  and  _525
REMARK  203  A    between atoms: _524  and  _527
REMARK  204  A    between atoms: _527  and  _528
REMARK  205  A    between atoms: _530  and  _532
REMARK  206  A    between atoms: _532  and  _533
REMARK  207  A    between atoms: _532  and  _535
REMARK  208  A    between atoms: _535  and  _536
REMARK  209  A    between atoms: _542  and  _544
REMARK  210  A    between atoms: _544  and  _545
REMARK  211  A    between atoms: _544  and  _547
REMARK  212  A    between atoms: _547  and  _548
REMARK  213  A    between atoms: _551  and  _553
REMARK  214  A    between atoms: _553  and  _554
REMARK  215  A    between atoms: _553  and  _556
REMARK  216  A    between atoms: _556  and  _557
REMARK  217  A    between atoms: _559  and  _561
REMARK  218  A    between atoms: _561  and  _562
REMARK  219  A    between atoms: _561  and  _564
REMARK  220  A    between atoms: _564  and  _565
REMARK  221  A    between atoms: _570  and  _572
REMARK  222  A    between atoms: _572  and  _573
REMARK  223  A    between atoms: _572  and  _575
REMARK  224  A    between atoms: _575  and  _576
REMARK  225  A    between atoms: _581  and  _583
REMARK  226  A    between atoms: _583  and  _584
REMARK  227  A    between atoms: _583  and  _586
REMARK  228  A    between atoms: _586  and  _587
REMARK  229  A    between atoms: _590  and  _592
REMARK  230  A    between atoms: _592  and  _593
REMARK  231  A    between atoms: _592  and  _595
REMARK  232  A    between atoms: _595  and  _596
REMARK  233  A    between atoms: _601  and  _602
REMARK  234  A    between atoms: _604  and  _606
REMARK  235  A    between atoms: _606  and  _607
REMARK  236  A    between atoms: _606  and  _609
REMARK  237  A    between atoms: _609  and  _610
REMARK  238  A    between atoms: _615  and  _616
REMARK  239  A    between atoms: _618  and  _620
REMARK  240  A    between atoms: _620  and  _621
REMARK  241  A    between atoms: _620  and  _623
REMARK  242  A    between atoms: _626  and  _628
REMARK  243  A    between atoms: _628  and  _629
REMARK  244  A    between atoms: _628  and  _631
REMARK  245  A    between atoms: _631  and  _632
REMARK  246  A    between atoms: _637  and  _639
REMARK  247  A    between atoms: _639  and  _640
REMARK  248  A    between atoms: _643  and  _645
REMARK  249  A    between atoms: _645  and  _646
REMARK  250  A    between atoms: _645  and  _648
REMARK  251  A    between atoms: _648  and  _649
REMARK  252  A    between atoms: _649  and  _650
REMARK  253  A    between atoms: _650  and  _651
REMARK  254  A    between atoms: _660  and  _662
REMARK  255  A    between atoms: _662  and  _663
REMARK  256  A    between atoms: _662  and  _665
REMARK  257  A    between atoms: _665  and  _666
REMARK  258  A    between atoms: _669  and  _671
REMARK  259  A    between atoms: _671  and  _672
REMARK  260  A    between atoms: _671  and  _674
REMARK  261  A    between atoms: _674  and  _675
REMARK  262  A    between atoms: _678  and  _680
REMARK  263  A    between atoms: _680  and  _681
REMARK  264  A    between atoms: _680  and  _683
REMARK  265  A    between atoms: _683  and  _684
REMARK                            x       y       z     vdW  Elec       q    Type
REMARK                         _______ _______ _______ _____ _____    ______ ____
ROOT
ATOM      1  CA  ASN A   3      -6.046  10.643  11.522  0.00  0.00    +0.158 C 
ENDROOT
BRANCH   1   4
ATOM      2  C   VAL A   2      -6.597  10.346  13.823  0.00  0.00    +0.241 C 
ATOM      3  O   VAL A   2      -6.776  11.555  13.983  0.00  0.00    -0.273 OA
ATOM      4  N   ASN A   3      -6.192   9.783  12.699  0.00  0.00    -0.297 N 
ATOM      5  H   ASN A   3      -5.984   8.765  12.651  0.00  0.00    +0.150 HD
BRANCH   2   6
ATOM      6  CA  VAL A   2      -6.723   9.387  15.020  0.00  0.00    +0.148 C 
BRANCH   6   9
ATOM      7  C   TYR A   1      -5.452  10.076  16.976  0.00  0.00    +0.239 C 
ATOM      8  O   TYR A   1      -4.660   9.165  16.950  0.00  0.00    -0.274 OA
ATOM      9  N   VAL A   2      -6.484  10.246  16.149  0.00  0.00    -0.297 N 
ATOM     10  H   VAL A   2      -7.143  11.031  16.327  0.00  0.00    +0.150 HD
BRANCH   7  11
ATOM     11  CA  TYR A   1      -5.273  11.305  17.889  0.00  0.00    +0.149 C 
BRANCH  11  12
ATOM     12  N   TYR A   1      -4.500  10.959  19.051  0.00  0.00    -0.238 NA
ATOM     13  H   TYR A   1      -3.525  11.311  19.139  0.00  0.00    +0.142 HD
ENDBRANCH  11  12
BRANCH  11  14
ATOM     14  CB  TYR A   1      -4.582  12.276  16.950  0.00  0.00    +0.053 C 
BRANCH  14  15
ATOM     15  CG  TYR A   1      -4.237  13.679  17.331  0.00  0.00    -0.020 A 
ATOM     16  CD2 TYR A   1      -3.376  14.028  18.362  0.00  0.00    -0.001 A 
ATOM     17  CE2 TYR A   1      -3.078  15.373  18.575  0.00  0.00    +0.036 A 
ATOM     18  CZ  TYR A   1      -3.670  16.356  17.823  0.00  0.00    +0.134 A 
ATOM     19  CE1 TYR A   1      -4.545  16.031  16.827  0.00  0.00    +0.036 A 
ATOM     20  CD1 TYR A   1      -4.812  14.695  16.583  0.00  0.00    -0.001 A 
BRANCH  18  21
ATOM     21  OH  TYR A   1      -3.346  17.677  18.052  0.00  0.00    -0.506 OA
ATOM     22  HH  TYR A   1      -2.935  18.061  17.237  0.00  0.00    +0.292 HD
ENDBRANCH  18  21
ENDBRANCH  14  15
ENDBRANCH  11  14
ENDBRANCH   7  11
ENDBRANCH   6   9
BRANCH   6  23
ATOM     23  CB  VAL A   2      -8.066   8.654  14.928  0.00  0.00    +0.027 C 
ATOM     24  CG2 VAL A   2      -8.134   7.579  16.016  0.00  0.00    +0.002 C 
ATOM     25  CG1 VAL A   2      -9.226   9.620  15.042  0.00  0.00    +0.002 C 
ENDBRANCH   6  23
ENDBRANCH   2   6
ENDBRANCH   1   4
BRANCH   1  26
ATOM     26  C   ASN A   3      -7.376  10.599  10.777  0.00  0.00    +0.241 C 
ATOM     27  N   ALA A   4      -8.254  11.544  11.071  0.00  0.00    -0.297 N 
ATOM     28  H   ALA A   4      -7.982  12.266  11.768  0.00  0.00    +0.150 HD
ATOM     29  O   ASN A   3      -7.650   9.647  10.034  0.00  0.00    -0.273 OA
BRANCH  27  30
ATOM     30  CA  ALA A   4      -9.582  11.632  10.474  0.00  0.00    +0.149 C 
ATOM     31  CB  ALA A   4     -10.593  11.823  11.604  0.00  0.00    +0.031 C 
BRANCH  30  32
ATOM     32  C   ALA A   4      -9.659  12.818   9.509  0.00  0.00    +0.241 C 
ATOM     33  O   ALA A   4      -9.320  13.955   9.859  0.00  0.00    -0.273 OA
ATOM     34  N   ARG A   5     -10.026  12.551   8.273  0.00  0.00    -0.298 N 
ATOM     35  H   ARG A   5     -10.243  11.569   8.008  0.00  0.00    +0.150 HD
BRANCH  34  36
ATOM     36  CA  ARG A   5     -10.135  13.600   7.268  0.00  0.00    +0.137 C 
BRANCH  36  37
ATOM     37  C   ARG A   5     -11.090  13.134   6.178  0.00  0.00    +0.227 C 
ATOM     38  O   ARG A   5     -11.307  11.921   6.000  0.00  0.00    -0.286 OA
ENDBRANCH  36  37
BRANCH  36  39
ATOM     39  CB  ARG A   5      -8.763  13.904   6.630  0.00  0.00    +0.031 C 
BRANCH  39  40
ATOM     40  CG  ARG A   5      -8.007  12.690   6.120  0.00  0.00    +0.045 C 
BRANCH  40  41
ATOM     41  CD  ARG A   5      -7.057  12.997   4.977  0.00  0.00    +0.174 C 
BRANCH  41  42
ATOM     42  NE  ARG A   5      -6.063  14.027   5.145  0.00  0.00    -0.265 N 
ATOM     43  CZ  ARG A   5      -4.820  13.905   5.586  0.00  0.00    +0.342 C 
ATOM     44  NH2 ARG A   5      -4.342  12.724   5.934  0.00  0.00    -0.292 N 
ATOM     45 HH21 ARG A   5      -3.365  12.640   6.279  0.00  0.00    +0.255 HD
ATOM     46 HH22 ARG A   5      -4.943  11.878   5.863  0.00  0.00    +0.255 HD
ATOM     47  NH1 ARG A   5      -4.044  14.970   5.671  0.00  0.00    -0.292 N 
ATOM     48 HH11 ARG A   5      -3.068  14.876   6.017  0.00  0.00    +0.255 HD
ATOM     49 HH12 ARG A   5      -4.409  15.903   5.392  0.00  0.00    +0.255 HD
ATOM     50  HE  ARG A   5      -6.360  14.990   4.887  0.00  0.00    +0.259 HD
ENDBRANCH  41  42
ENDBRANCH  40  41
ENDBRANCH  39  40
ENDBRANCH  36  39
ENDBRANCH  34  36
ENDBRANCH  30  32
ENDBRANCH  27  30
ENDBRANCH   1  26
BRANCH   1  51
ATOM     51  CB  ASN A   3      -4.860  10.050  10.748  0.00  0.00    +0.114 C 
BRANCH  51  52
ATOM     52  CG  ASN A   3      -4.658  10.758   9.432  0.00  0.00    +0.222 C 
ATOM     53  OD1 ASN A   3      -5.378  11.728   9.153  0.00  0.00    -0.275 OA
ATOM     54  ND2 ASN A   3      -3.749  10.336   8.571  0.00  0.00    -0.329 N 
ATOM     55 HD21 ASN A   3      -3.147   9.522   8.808  0.00  0.00    +0.145 HD
ATOM     56 HD22 ASN A   3      -3.636  10.818   7.656  0.00  0.00    +0.145 HD
ENDBRANCH  51  52
ENDBRANCH   1  51
TORSDOF 20
REMARK  Name = ../refined-set-2016/1b9j/1b9j_pocket.pdb
REMARK  265 active torsions:
REMARK  status: ('A' for Active; 'I' for Inactive)
REMARK    1  A    between atoms: _1  and  _3
REMARK    2  A    between atoms: _3  and  _4
REMARK    3  A    between atoms: _3  and  _6
REMARK    4  A    between atoms: _6  and  _7
REMARK    5  A    between atoms: _12  and  _14
REMARK    6  A    between atoms: _14  and  _15
REMARK    7  A    between atoms: _17  and  _19
REMARK    8  A    between atoms: _19  and  _20
REMARK    9  A    between atoms: _19  and  _22
REMARK   10  A    between atoms: _22  and  _23
REMARK   11  A    between atoms: _25  and  _27
REMARK   12  A    between atoms: _27  and  _28
REMARK   13  A    between atoms: _27  and  _30
REMARK   14  A    between atoms: _30  and  _31
REMARK   15  A    between atoms: _31  and  _32
REMARK   16  A    between atoms: _37  and  _39
REMARK   17  A    between atoms: _39  and  _40
REMARK   18  A    between atoms: _39  and  _42
REMARK   19  A    between atoms: _42  and  _43
REMARK   20  A    between atoms: _46  and  _48
REMARK   21  A    between atoms: _48  and  _49
REMARK   22  A    between atoms: _48  and  _51
REMARK   23  A    between atoms: _51  and  _52
REMARK   24  A    between atoms: _52  and  _53
REMARK   25  A    between atoms: _56  and  _58
REMARK   26  A    between atoms: _58  and  _59
REMARK   27  A    between atoms: _61  and  _63
REMARK   28  A    between atoms: _63  and  _64
REMARK   29  A    between atoms: _63  and  _66
REMARK   30  A    between atoms: _70  and  _71
REMARK   31  A    between atoms: _76  and  _78
REMARK   32  A    between atoms: _78  and  _79
REMARK   33  A    between atoms: _78  and  _81
REMARK   34  A    between atoms: _81  and  _82
REMARK   35  A    between atoms: _82  and  _83
REMARK   36  A    between atoms: _86  and  _88
REMARK   37  A    between atoms: _88  and  _89
REMARK   38  A    between atoms: _88  and  _91
REMARK   39  A    between atoms: _91  and  _92
REMARK   40  A    between atoms: _94  and  _96
REMARK   41  A    between atoms: _96  and  _97
REMARK   42  A    between atoms: _96  and  _99
REMARK   43  A    between atoms: _99  and  _100
REMARK   44  A    between atoms: _105  and  _107
REMARK   45  A    between atoms: _107  and  _108
REMARK   46  A    between atoms: _107  and  _110
REMARK   47  A    between atoms: _110  and  _111
REMARK   48  A    between atoms: _111  and  _112
REMARK   49  A    between atoms: _112  and  _113
REMARK   50  A    between atoms: _123  and  _124
REMARK   51  A    between atoms: _129  and  _131
REMARK   52  A    between atoms: _131  and  _132
REMARK   53  A    between atoms: _131  and  _134
REMARK   54  A    between atoms: _134  and  _135
REMARK   55  A    between atoms: _140  and  _141
REMARK   56  A    between atoms: _143  and  _145
REMARK   57  A    between atoms: _145  and  _146
REMARK   58  A    between atoms: _145  and  _148
REMARK   59  A    between atoms: _148  and  _149
REMARK   60  A    between atoms: _154  and  _155
REMARK   61  A    between atoms: _157  and  _159
REMARK   62  A    between atoms: _159  and  _160
REMARK   63  A    between atoms: _159  and  _162
REMARK   64  A    between atoms: _165  and  _167
REMARK   65  A    between atoms: _167  and  _168
REMARK   66  A    between atoms: _167  and  _170
REMARK   67  A    between atoms: _170  and  _171
REMARK   68  A    between atoms: _177  and  _178
REMARK   69  A    between atoms: _183  and  _185
REMARK   70  A    between atoms: _185  and  _186
REMARK   71  A    between atoms: _185  and  _188
REMARK   72  A    between atoms: _188  and  _189
REMARK   73  A    between atoms: _191  and  _193
REMARK   74  A    between atoms: _193  and  _194
REMARK   75  A    between atoms: _193  and  _196
REMARK   76  A    between atoms: _196  and  _197
REMARK   77  A    between atoms: _197  and  _198
REMARK   78  A    between atoms: _201  and  _203
REMARK   79  A    between atoms: _203  and  _204
REMARK   80  A    between atoms: _203  and  _206
REMARK   81  A    between atoms: _206  and  _207
REMARK   82  A    between atoms: _212  and  _213
REMARK   83  A    between atoms: _215  and  _217
REMARK   84  A    between atoms: _217  and  _218
REMARK   85  A    between atoms: _217  and  _220
REMARK   86  A    between atoms: _220  and  _221
REMARK   87  A    between atoms: _226  and  _228
REMARK   88  A    between atoms: _228  and  _229
REMARK   89  A    between atoms: _228  and  _231
REMARK   90  A    between atoms: _231  and  _232
REMARK   91  A    between atoms: _237  and  _239
REMARK   92  A    between atoms: _239  and  _240
REMARK   93  A    between atoms: _239  and  _242
REMARK   94  A    between atoms: _242  and  _243
REMARK   95  A    between atoms: _243  and  _244
REMARK   96  A    between atoms: _246  and  _248
REMARK   97  A    between atoms: _248  and  _249
REMARK   98  A    between atoms: _248  and  _251
REMARK   99  A    between atoms: _251  and  _252
REMARK  100  A    between atoms: _257  and  _258
REMARK  101  A    between atoms: _260  and  _262
REMARK  102  A    between atoms: _262  and  _263
REMARK  103  A    between atoms: _262  and  _265
REMARK  104  A    between atoms: _265  and  _266
REMARK  105  A    between atoms: _269  and  _271
REMARK  106  A    between atoms: _271  and  _272
REMARK  107  A    between atoms: _271  and  _274
REMARK  108  A    between atoms: _274  and  _275
REMARK  109  A    between atoms: _275  and  _492
REMARK  110  A    between atoms: _276  and  _278
REMARK  111  A    between atoms: _278  and  _279
REMARK  112  A    between atoms: _278  and  _281
REMARK  113  A    between atoms: _281  and  _282
REMARK  114  A    between atoms: _285  and  _287
REMARK  115  A    between atoms: _287  and  _288
REMARK  116  A    between atoms: _287  and  _290
REMARK  117  A    between atoms: _290  and  _291
REMARK  118  A    between atoms: _296  and  _297
REMARK  119  A    between atoms: _299  and  _301
REMARK  120  A    between atoms: _301  and  _302
REMARK  121  A    between atoms: _301  and  _304
REMARK  122  A    between atoms: _304  and  _305
REMARK  123  A    between atoms: _310  and  _311
REMARK  124  A    between atoms: _313  and  _315
REMARK  125  A    between atoms: _315  and  _316
REMARK  126  A    between atoms: _315  and  _318
REMARK  127  A    between atoms: _318  and  _319
REMARK  128  A    between atoms: _319  and  _320
REMARK  129  A    between atoms: _323  and  _325
REMARK  130  A    between atoms: _325  and  _326
REMARK  131  A    between atoms: _325  and  _328
REMARK  132  A    between atoms: _328  and  _329
REMARK  133  A    between atoms: _334  and  _335
REMARK  134  A    between atoms: _337  and  _339
REMARK  135  A    between atoms: _339  and  _340
REMARK  136  A    between atoms: _339  and  _342
REMARK  137  A    between atoms: _342  and  _343
REMARK  138  A    between atoms: _348  and  _350
REMARK  139  A    between atoms: _350  and  _351
REMARK  140  A    between atoms: _350  and  _353
REMARK  141  A    between atoms: _353  and  _354
REMARK  142  A    between atoms: _357  and  _359
REMARK  143  A    between atoms: _359  and  _360
REMARK  144  A    between atoms: _359  and  _362
REMARK  145  A    between atoms: _362  and  _363
REMARK  146  A    between atoms: _368  and  _370
REMARK  147  A    between atoms: _370  and  _371
REMARK  148  A    between atoms: _370  and  _373
REMARK  149  A    between atoms: _373  and  _374
REMARK  150  A    between atoms: _384  and  _386
REMARK  151  A    between atoms: _386  and  _387
REMARK  152  A    between atoms: _386  and  _389
REMARK  153  A    between atoms: _389  and  _390
REMARK  154  A    between atoms: _396  and  _398
REMARK  155  A    between atoms: _398  and  _399
REMARK  156  A    between atoms: _398  and  _401
REMARK  157  A    between atoms: _401  and  _402
REMARK  158  A    between atoms: _405  and  _407
REMARK  159  A    between atoms: _407  and  _408
REMARK  160  A    between atoms: _407  and  _410
REMARK  161  A    between atoms: _410  and  _411
REMARK  162  A    between atoms: _414  and  _416
REMARK  163  A    between atoms: _416  and  _417
REMARK  164  A    between atoms: _416  and  _419
REMARK  165  A    between atoms: _419  and  _420
REMARK  166  A    between atoms: _420  and  _421
REMARK  167  A    between atoms: _421  and  _422
REMARK  168  A    between atoms: _431  and  _433
REMARK  169  A    between atoms: _433  and  _434
REMARK  170  A    between atoms: _433  and  _436
REMARK  171  A    between atoms: _436  and  _437
REMARK  172  A    between atoms: _442  and  _444
REMARK  173  A    between atoms: _444  and  _445
REMARK  174  A    between atoms: _444  and  _447
REMARK  175  A    between atoms: _447  and  _448
REMARK  176  A    between atoms: _448  and  _449
REMARK  177  A    between atoms: _449  and  _450
REMARK  178  A    between atoms: _459  and  _461
REMARK  179  A    between atoms: _461  and  _462
REMARK  180  A    between atoms: _465  and  _467
REMARK  181  A    between atoms: _467  and  _468
REMARK  182  A    between atoms: _470  and  _472
REMARK  183  A    between atoms: _472  and  _473
REMARK  184  A    between atoms: _472  and  _475
REMARK  185  A    between atoms: _475  and  _476
REMARK  186  A    between atoms: _486  and  _488
REMARK  187  A    between atoms: _488  and  _489
REMARK  188  A    between atoms: _488  and  _491
REMARK  189  A    between atoms: _491  and  _492
REMARK  190  A    between atoms: _493  and  _495
REMARK  191  A    between atoms: _495  and  _496
REMARK  192  A    between atoms: _499  and  _501
REMARK  193  A    between atoms: _501  and  _502
REMARK  194  A    between atoms: _501  and  _504
REMARK  195  A    between atoms: _504  and  _505
REMARK  196  A    between atoms: _508  and  _510
REMARK  197  A    between atoms: _510  and  _511
REMARK  198  A    between atoms: _510  and  _513
REMARK  199  A    between atoms: _513  and  _514
REMARK  200  A    between atoms: _519  and  _520
REMARK  201  A    between atoms: _522  and  _524
REMARK  202  A    between atoms: _524  and  _525
REMARK  203  A    between atoms: _524  and  _527
REMARK  204  A    between atoms: _527  and  _528
REMARK  205  A    between atoms: _530  and  _532
REMARK  206  A    between atoms: _532  and  _533
REMARK  207  A    between atoms: _532  and  _535
REMARK  208  A    between atoms: _535  and  _536
REMARK  209  A    between atoms: _542  and  _544
REMARK  210  A    between atoms: _544  and  _545
REMARK  211  A    between atoms: _544  and  _547
REMARK  212  A    between atoms: _547  and  _548
REMARK  213  A    between atoms: _551  and  _553
REMARK  214  A    between atoms: _553  and  _554
REMARK  215  A    between atoms: _553  and  _556
REMARK  216  A    between atoms: _556  and  _557
REMARK  217  A    between atoms: _559  and  _561
REMARK  218  A    between atoms: _561  and  _562
REMARK  219  A    between atoms: _561  and  _564
REMARK  220  A    between atoms: _564  and  _565
REMARK  221  A    between atoms: _570  and  _572
REMARK  222  A    between atoms: _572  and  _573
REMARK  223  A    between atoms: _572  and  _575
REMARK  224  A    between atoms: _575  and  _576
REMARK  225  A    between atoms: _581  and  _583
REMARK  226  A    between atoms: _583  and  _584
REMARK  227  A    between atoms: _583  and  _586
REMARK  228  A    between atoms: _586  and  _587
REMARK  229  A    between atoms: _590  and  _592
REMARK  230  A    between atoms: _592  and  _593
REMARK  231  A    between atoms: _592  and  _595
REMARK  232  A    between atoms: _595  and  _596
REMARK  233  A    between atoms: _601  and  _602
REMARK  234  A    between atoms: _604  and  _606
REMARK  235  A    between atoms: _606  and  _607
REMARK  236  A    between atoms: _606  and  _609
REMARK  237  A    between atoms: _609  and  _610
REMARK  238  A    between atoms: _615  and  _616
REMARK  239  A    between atoms: _618  and  _620
REMARK  240  A    between atoms: _620  and  _621
REMARK  241  A    between atoms: _620  and  _623
REMARK  242  A    between atoms: _626  and  _628
REMARK  243  A    between atoms: _628  and  _629
REMARK  244  A    between atoms: _628  and  _631
REMARK  245  A    between atoms: _631  and  _632
REMARK  246  A    between atoms: _637  and  _639
REMARK  247  A    between atoms: _639  and  _640
REMARK  248  A    between atoms: _643  and  _645
REMARK  249  A    between atoms: _645  and  _646
REMARK  250  A    between atoms: _645  and  _648
REMARK  251  A    between atoms: _648  and  _649
REMARK  252  A    between atoms: _649  and  _650
REMARK  253  A    between atoms: _650  and  _651
REMARK  254  A    between atoms: _660  and  _662
REMARK  255  A    between atoms: _662  and  _663
REMARK  256  A    between atoms: _662  and  _665
REMARK  257  A    between atoms: _665  and  _666
REMARK  258  A    between atoms: _669  and  _671
REMARK  259  A    between atoms: _671  and  _672
REMARK  260  A    between atoms: _671  and  _674
REMARK  261  A    between atoms: _674  and  _675
REMARK  262  A    between atoms: _678  and  _680
REMARK  263  A    between atoms: _680  and  _681
REMARK  264  A    between atoms: _680  and  _683
REMARK  265  A    between atoms: _683  and  _684
REMARK                            x       y       z     vdW  Elec       q    Type
REMARK                         _______ _______ _______ _____ _____    ______ ____
ROOT
ATOM      1  CA  ASP A   2       0.797  10.626   7.620  0.00  0.00    +0.160 C 
ENDROOT
BRANCH   1   4
ATOM      2  C   LEU A   1       2.320  10.305   9.521  0.00  0.00    +0.238 C 
ATOM      3  O   LEU A   1       2.626  11.517   9.533  0.00  0.00    -0.274 OA
ATOM      4  N   ASP A   2       1.495   9.811   8.620  0.00  0.00    -0.297 N 
ATOM      5  H   ASP A   2       1.329   8.784   8.618  0.00  0.00    +0.150 HD
BRANCH   2   6
ATOM      6  CA  LEU A   1       2.975   9.352  10.535  0.00  0.00    +0.145 C 
BRANCH   6   7
ATOM      7  N   LEU A   1       2.402   8.024  10.468  0.00  0.00    -0.238 NA
ATOM      8  H   LEU A   1       2.784   7.344   9.780  0.00  0.00    +0.142 HD
ENDBRANCH   6   7
BRANCH   6   9
ATOM      9  CB  LEU A   1       4.481   9.412  10.316  0.00  0.00    +0.026 C 
BRANCH   9  10
ATOM     10  CG  LEU A   1       5.407   8.540  11.153  0.00  0.00    +0.002 C 
ATOM     11  CD2 LEU A   1       4.939   8.311  12.561  0.00  0.00    +0.000 C 
ATOM     12  CD1 LEU A   1       6.814   9.121  11.161  0.00  0.00    +0.000 C 
ENDBRANCH   9  10
ENDBRANCH   6   9
ENDBRANCH   2   6
ENDBRANCH   1   4
BRANCH   1  13
ATOM     13  C   ASP A   2       1.742  11.509   6.803  0.00  0.00    +0.241 C 
ATOM     14  O   ASP A   2       1.459  12.694   6.566  0.00  0.00    -0.273 OA
ATOM     15  N   ASN A   3       2.806  10.884   6.301  0.00  0.00    -0.298 N 
ATOM     16  H   ASN A   3       2.931   9.867   6.479  0.00  0.00    +0.150 HD
BRANCH  15  17
ATOM     17  CA  ASN A   3       3.807  11.605   5.500  0.00  0.00    +0.146 C 
BRANCH  17  18
ATOM     18  C   ASN A   3       3.406  11.501   4.034  0.00  0.00    +0.227 C 
ATOM     19  O   ASN A   3       4.003  10.784   3.215  0.00  0.00    -0.286 OA
ENDBRANCH  17  18
BRANCH  17  20
ATOM     20  CB  ASN A   3       5.193  10.998   5.722  0.00  0.00    +0.112 C 
BRANCH  20  21
ATOM     21  CG  ASN A   3       5.881  11.519   6.971  0.00  0.00    +0.222 C 
ATOM     22  ND2 ASN A   3       6.618  10.643   7.649  0.00  0.00    -0.329 N 
ATOM     23 HD21 ASN A   3       7.120  10.941   8.510  0.00  0.00    +0.145 HD
ATOM     24 HD22 ASN A   3       6.693   9.660   7.318  0.00  0.00    +0.145 HD
ATOM     25  OD1 ASN A   3       5.766  12.683   7.324  0.00  0.00    -0.275 OA
ENDBRANCH  20  21
ENDBRANCH  17  20
ENDBRANCH  15  17
ENDBRANCH   1  13
BRANCH   1  26
ATOM     26  CB  ASP A   2      -0.300  11.497   8.231  0.00  0.00    +0.143 C 
BRANCH  26  27
ATOM     27  CG  ASP A   2      -1.293  11.989   7.195  0.00  0.00    +0.367 C 
ATOM     28  OD2 ASP A   2      -1.672  13.168   7.197  0.00  0.00    -0.246 OA
ATOM     29  OD1 ASP A   2      -1.658  11.223   6.288  0.00  0.00    -0.246 OA
ENDBRANCH  26  27
ENDBRANCH   1  26
TORSDOF 12
REMARK  Name = ../refined-set-2016/1b9j/1b9j_pocket.pdb
REMARK  265 active torsions:
REMARK  status: ('A' for Active; 'I' for Inactive)
REMARK    1  A    between atoms: _1  and  _3
REMARK    2  A    between atoms: _3  and  _4
REMARK    3  A    between atoms: _3  and  _6
REMARK    4  A    between atoms: _6  and  _7
REMARK    5  A    between atoms: _12  and  _14
REMARK    6  A    between atoms: _14  and  _15
REMARK    7  A    between atoms: _17  and  _19
REMARK    8  A    between atoms: _19  and  _20
REMARK    9  A    between atoms: _19  and  _22
REMARK   10  A    between atoms: _22  and  _23
REMARK   11  A    between atoms: _25  and  _27
REMARK   12  A    between atoms: _27  and  _28
REMARK   13  A    between atoms: _27  and  _30
REMARK   14  A    between atoms: _30  and  _31
REMARK   15  A    between atoms: _31  and  _32
REMARK   16  A    between atoms: _37  and  _39
REMARK   17  A    between atoms: _39  and  _40
REMARK   18  A    between atoms: _39  and  _42
REMARK   19  A    between atoms: _42  and  _43
REMARK   20  A    between atoms: _46  and  _48
REMARK   21  A    between atoms: _48  and  _49
REMARK   22  A    between atoms: _48  and  _51
REMARK   23  A    between atoms: _51  and  _52
REMARK   24  A    between atoms: _52  and  _53
REMARK   25  A    between atoms: _56  and  _58
REMARK   26  A    between atoms: _58  and  _59
REMARK   27  A    between atoms: _61  and  _63
REMARK   28  A    between atoms: _63  and  _64
REMARK   29  A    between atoms: _63  and  _66
REMARK   30  A    between atoms: _70  and  _71
REMARK   31  A    between atoms: _76  and  _78
REMARK   32  A    between atoms: _78  and  _79
REMARK   33  A    between atoms: _78  and  _81
REMARK   34  A    between atoms: _81  and  _82
REMARK   35  A    between atoms: _82  and  _83
REMARK   36  A    between atoms: _86  and  _88
REMARK   37  A    between atoms: _88  and  _89
REMARK   38  A    between atoms: _88  and  _91
REMARK   39  A    between atoms: _91  and  _92
REMARK   40  A    between atoms: _94  and  _96
REMARK   41  A    between atoms: _96  and  _97
REMARK   42  A    between atoms: _96  and  _99
REMARK   43  A    between atoms: _99  and  _100
REMARK   44  A    between atoms: _105  and  _107
REMARK   45  A    between atoms: _107  and  _108
REMARK   46  A    between atoms: _107  and  _110
REMARK   47  A    between atoms: _110  and  _111
REMARK   48  A    between atoms: _111  and  _112
REMARK   49  A    between atoms: _112  and  _113
REMARK   50  A    between atoms: _123  and  _124
REMARK   51  A    between atoms: _129  and  _131
REMARK   52  A    between atoms: _131  and  _132
REMARK   53  A    between atoms: _131  and  _134
REMARK   54  A    between atoms: _134  and  _135
REMARK   55  A    between atoms: _140  and  _141
REMARK   56  A    between atoms: _143  and  _145
REMARK   57  A    between atoms: _145  and  _146
REMARK   58  A    between atoms: _145  and  _148
REMARK   59  A    between atoms: _148  and  _149
REMARK   60  A    between atoms: _154  and  _155
REMARK   61  A    between atoms: _157  and  _159
REMARK   62  A    between atoms: _159  and  _160
REMARK   63  A    between atoms: _159  and  _162
REMARK   64  A    between atoms: _165  and  _167
REMARK   65  A    between atoms: _167  and  _168
REMARK   66  A    between atoms: _167  and  _170
REMARK   67  A    between atoms: _170  and  _171
REMARK   68  A    between atoms: _177  and  _178
REMARK   69  A    between atoms: _183  and  _185
REMARK   70  A    between atoms: _185  and  _186
REMARK   71  A    between atoms: _185  and  _188
REMARK   72  A    between atoms: _188  and  _189
REMARK   73  A    between atoms: _191  and  _193
REMARK   74  A    between atoms: _193  and  _194
REMARK   75  A    between atoms: _193  and  _196
REMARK   76  A    between atoms: _196  and  _197
REMARK   77  A    between atoms: _197  and  _198
REMARK   78  A    between atoms: _201  and  _203
REMARK   79  A    between atoms: _203  and  _204
REMARK   80  A    between atoms: _203  and  _206
REMARK   81  A    between atoms: _206  and  _207
REMARK   82  A    between atoms: _212  and  _213
REMARK   83  A    between atoms: _215  and  _217
REMARK   84  A    between atoms: _217  and  _218
REMARK   85  A    between atoms: _217  and  _220
REMARK   86  A    between atoms: _220  and  _221
REMARK   87  A    between atoms: _226  and  _228
REMARK   88  A    between atoms: _228  and  _229
REMARK   89  A    between atoms: _228  and  _231
REMARK   90  A    between atoms: _231  and  _232
REMARK   91  A    between atoms: _237  and  _239
REMARK   92  A    between atoms: _239  and  _240
REMARK   93  A    between atoms: _239  and  _242
REMARK   94  A    between atoms: _242  and  _243
REMARK   95  A    between atoms: _243  and  _244
REMARK   96  A    between atoms: _246  and  _248
REMARK   97  A    between atoms: _248  and  _249
REMARK   98  A    between atoms: _248  and  _251
REMARK   99  A    between atoms: _251  and  _252
REMARK  100  A    between atoms: _257  and  _258
REMARK  101  A    between atoms: _260  and  _262
REMARK  102  A    between atoms: _262  and  _263
REMARK  103  A    between atoms: _262  and  _265
REMARK  104  A    between atoms: _265  and  _266
REMARK  105  A    between atoms: _269  and  _271
REMARK  106  A    between atoms: _271  and  _272
REMARK  107  A    between atoms: _271  and  _274
REMARK  108  A    between atoms: _274  and  _275
REMARK  109  A    between atoms: _275  and  _492
REMARK  110  A    between atoms: _276  and  _278
REMARK  111  A    between atoms: _278  and  _279
REMARK  112  A    between atoms: _278  and  _281
REMARK  113  A    between atoms: _281  and  _282
REMARK  114  A    between atoms: _285  and  _287
REMARK  115  A    between atoms: _287  and  _288
REMARK  116  A    between atoms: _287  and  _290
REMARK  117  A    between atoms: _290  and  _291
REMARK  118  A    between atoms: _296  and  _297
REMARK  119  A    between atoms: _299  and  _301
REMARK  120  A    between atoms: _301  and  _302
REMARK  121  A    between atoms: _301  and  _304
REMARK  122  A    between atoms: _304  and  _305
REMARK  123  A    between atoms: _310  and  _311
REMARK  124  A    between atoms: _313  and  _315
REMARK  125  A    between atoms: _315  and  _316
REMARK  126  A    between atoms: _315  and  _318
REMARK  127  A    between atoms: _318  and  _319
REMARK  128  A    between atoms: _319  and  _320
REMARK  129  A    between atoms: _323  and  _325
REMARK  130  A    between atoms: _325  and  _326
REMARK  131  A    between atoms: _325  and  _328
REMARK  132  A    between atoms: _328  and  _329
REMARK  133  A    between atoms: _334  and  _335
REMARK  134  A    between atoms: _337  and  _339
REMARK  135  A    between atoms: _339  and  _340
REMARK  136  A    between atoms: _339  and  _342
REMARK  137  A    between atoms: _342  and  _343
REMARK  138  A    between atoms: _348  and  _350
REMARK  139  A    between atoms: _350  and  _351
REMARK  140  A    between atoms: _350  and  _353
REMARK  141  A    between atoms: _353  and  _354
REMARK  142  A    between atoms: _357  and  _359
REMARK  143  A    between atoms: _359  and  _360
REMARK  144  A    between atoms: _359  and  _362
REMARK  145  A    between atoms: _362  and  _363
REMARK  146  A    between atoms: _368  and  _370
REMARK  147  A    between atoms: _370  and  _371
REMARK  148  A    between atoms: _370  and  _373
REMARK  149  A    between atoms: _373  and  _374
REMARK  150  A    between atoms: _384  and  _386
REMARK  151  A    between atoms: _386  and  _387
REMARK  152  A    between atoms: _386  and  _389
REMARK  153  A    between atoms: _389  and  _390
REMARK  154  A    between atoms: _396  and  _398
REMARK  155  A    between atoms: _398  and  _399
REMARK  156  A    between atoms: _398  and  _401
REMARK  157  A    between atoms: _401  and  _402
REMARK  158  A    between atoms: _405  and  _407
REMARK  159  A    between atoms: _407  and  _408
REMARK  160  A    between atoms: _407  and  _410
REMARK  161  A    between atoms: _410  and  _411
REMARK  162  A    between atoms: _414  and  _416
REMARK  163  A    between atoms: _416  and  _417
REMARK  164  A    between atoms: _416  and  _419
REMARK  165  A    between atoms: _419  and  _420
REMARK  166  A    between atoms: _420  and  _421
REMARK  167  A    between atoms: _421  and  _422
REMARK  168  A    between atoms: _431  and  _433
REMARK  169  A    between atoms: _433  and  _434
REMARK  170  A    between atoms: _433  and  _436
REMARK  171  A    between atoms: _436  and  _437
REMARK  172  A    between atoms: _442  and  _444
REMARK  173  A    between atoms: _444  and  _445
REMARK  174  A    between atoms: _444  and  _447
REMARK  175  A    between atoms: _447  and  _448
REMARK  176  A    between atoms: _448  and  _449
REMARK  177  A    between atoms: _449  and  _450
REMARK  178  A    between atoms: _459  and  _461
REMARK  179  A    between atoms: _461  and  _462
REMARK  180  A    between atoms: _465  and  _467
REMARK  181  A    between atoms: _467  and  _468
REMARK  182  A    between atoms: _470  and  _472
REMARK  183  A    between atoms: _472  and  _473
REMARK  184  A    between atoms: _472  and  _475
REMARK  185  A    between atoms: _475  and  _476
REMARK  186  A    between atoms: _486  and  _488
REMARK  187  A    between atoms: _488  and  _489
REMARK  188  A    between atoms: _488  and  _491
REMARK  189  A    between atoms: _491  and  _492
REMARK  190  A    between atoms: _493  and  _495
REMARK  191  A    between atoms: _495  and  _496
REMARK  192  A    between atoms: _499  and  _501
REMARK  193  A    between atoms: _501  and  _502
REMARK  194  A    between atoms: _501  and  _504
REMARK  195  A    between atoms: _504  and  _505
REMARK  196  A    between atoms: _508  and  _510
REMARK  197  A    between atoms: _510  and  _511
REMARK  198  A    between atoms: _510  and  _513
REMARK  199  A    between atoms: _513  and  _514
REMARK  200  A    between atoms: _519  and  _520
REMARK  201  A    between atoms: _522  and  _524
REMARK  202  A    between atoms: _524  and  _525
REMARK  203  A    between atoms: _524  and  _527
REMARK  204  A    between atoms: _527  and  _528
REMARK  205  A    between atoms: _530  and  _532
REMARK  206  A    between atoms: _532  and  _533
REMARK  207  A    between atoms: _532  and  _535
REMARK  208  A    between atoms: _535  and  _536
REMARK  209  A    between atoms: _542  and  _544
REMARK  210  A    between atoms: _544  and  _545
REMARK  211  A    between atoms: _544  and  _547
REMARK  212  A    between atoms: _547  and  _548
REMARK  213  A    between atoms: _551  and  _553
REMARK  214  A    between atoms: _553  and  _554
REMARK  215  A    between atoms: _553  and  _556
REMARK  216  A    between atoms: _556  and  _557
REMARK  217  A    between atoms: _559  and  _561
REMARK  218  A    between atoms: _561  and  _562
REMARK  219  A    between atoms: _561  and  _564
REMARK  220  A    between atoms: _564  and  _565
REMARK  221  A    between atoms: _570  and  _572
REMARK  222  A    between atoms: _572  and  _573
REMARK  223  A    between atoms: _572  and  _575
REMARK  224  A    between atoms: _575  and  _576
REMARK  225  A    between atoms: _581  and  _583
REMARK  226  A    between atoms: _583  and  _584
REMARK  227  A    between atoms: _583  and  _586
REMARK  228  A    between atoms: _586  and  _587
REMARK  229  A    between atoms: _590  and  _592
REMARK  230  A    between atoms: _592  and  _593
REMARK  231  A    between atoms: _592  and  _595
REMARK  232  A    between atoms: _595  and  _596
REMARK  233  A    between atoms: _601  and  _602
REMARK  234  A    between atoms: _604  and  _606
REMARK  235  A    between atoms: _606  and  _607
REMARK  236  A    between atoms: _606  and  _609
REMARK  237  A    between atoms: _609  and  _610
REMARK  238  A    between atoms: _615  and  _616
REMARK  239  A    between atoms: _618  and  _620
REMARK  240  A    between atoms: _620  and  _621
REMARK  241  A    between atoms: _620  and  _623
REMARK  242  A    between atoms: _626  and  _628
REMARK  243  A    between atoms: _628  and  _629
REMARK  244  A    between atoms: _628  and  _631
REMARK  245  A    between atoms: _631  and  _632
REMARK  246  A    between atoms: _637  and  _639
REMARK  247  A    between atoms: _639  and  _640
REMARK  248  A    between atoms: _643  and  _645
REMARK  249  A    between atoms: _645  and  _646
REMARK  250  A    between atoms: _645  and  _648
REMARK  251  A    between atoms: _648  and  _649
REMARK  252  A    between atoms: _649  and  _650
REMARK  253  A    between atoms: _650  and  _651
REMARK  254  A    between atoms: _660  and  _662
REMARK  255  A    between atoms: _662  and  _663
REMARK  256  A    between atoms: _662  and  _665
REMARK  257  A    between atoms: _665  and  _666
REMARK  258  A    between atoms: _669  and  _671
REMARK  259  A    between atoms: _671  and  _672
REMARK  260  A    between atoms: _671  and  _674
REMARK  261  A    between atoms: _674  and  _675
REMARK  262  A    between atoms: _678  and  _680
REMARK  263  A    between atoms: _680  and  _681
REMARK  264  A    between atoms: _680  and  _683
REMARK  265  A    between atoms: _683  and  _684
REMARK                            x       y       z     vdW  Elec       q    Type
REMARK                         _______ _______ _______ _____ _____    ______ ____
ROOT
ATOM      1  O   HOH     1      11.420  13.607  16.616  0.00  0.00    +0.000 OA
ENDROOT
TORSDOF 0
REMARK  Name = ../refined-set-2016/1b9j/1b9j_pocket.pdb
REMARK  265 active torsions:
REMARK  status: ('A' for Active; 'I' for Inactive)
REMARK    1  A    between atoms: _1  and  _3
REMARK    2  A    between atoms: _3  and  _4
REMARK    3  A    between atoms: _3  and  _6
REMARK    4  A    between atoms: _6  and  _7
REMARK    5  A    between atoms: _12  and  _14
REMARK    6  A    between atoms: _14  and  _15
REMARK    7  A    between atoms: _17  and  _19
REMARK    8  A    between atoms: _19  and  _20
REMARK    9  A    between atoms: _19  and  _22
REMARK   10  A    between atoms: _22  and  _23
REMARK   11  A    between atoms: _25  and  _27
REMARK   12  A    between atoms: _27  and  _28
REMARK   13  A    between atoms: _27  and  _30
REMARK   14  A    between atoms: _30  and  _31
REMARK   15  A    between atoms: _31  and  _32
REMARK   16  A    between atoms: _37  and  _39
REMARK   17  A    between atoms: _39  and  _40
REMARK   18  A    between atoms: _39  and  _42
REMARK   19  A    between atoms: _42  and  _43
REMARK   20  A    between atoms: _46  and  _48
REMARK   21  A    between atoms: _48  and  _49
REMARK   22  A    between atoms: _48  and  _51
REMARK   23  A    between atoms: _51  and  _52
REMARK   24  A    between atoms: _52  and  _53
REMARK   25  A    between atoms: _56  and  _58
REMARK   26  A    between atoms: _58  and  _59
REMARK   27  A    between atoms: _61  and  _63
REMARK   28  A    between atoms: _63  and  _64
REMARK   29  A    between atoms: _63  and  _66
REMARK   30  A    between atoms: _70  and  _71
REMARK   31  A    between atoms: _76  and  _78
REMARK   32  A    between atoms: _78  and  _79
REMARK   33  A    between atoms: _78  and  _81
REMARK   34  A    between atoms: _81  and  _82
REMARK   35  A    between atoms: _82  and  _83
REMARK   36  A    between atoms: _86  and  _88
REMARK   37  A    between atoms: _88  and  _89
REMARK   38  A    between atoms: _88  and  _91
REMARK   39  A    between atoms: _91  and  _92
REMARK   40  A    between atoms: _94  and  _96
REMARK   41  A    between atoms: _96  and  _97
REMARK   42  A    between atoms: _96  and  _99
REMARK   43  A    between atoms: _99  and  _100
REMARK   44  A    between atoms: _105  and  _107
REMARK   45  A    between atoms: _107  and  _108
REMARK   46  A    between atoms: _107  and  _110
REMARK   47  A    between atoms: _110  and  _111
REMARK   48  A    between atoms: _111  and  _112
REMARK   49  A    between atoms: _112  and  _113
REMARK   50  A    between atoms: _123  and  _124
REMARK   51  A    between atoms: _129  and  _131
REMARK   52  A    between atoms: _131  and  _132
REMARK   53  A    between atoms: _131  and  _134
REMARK   54  A    between atoms: _134  and  _135
REMARK   55  A    between atoms: _140  and  _141
REMARK   56  A    between atoms: _143  and  _145
REMARK   57  A    between atoms: _145  and  _146
REMARK   58  A    between atoms: _145  and  _148
REMARK   59  A    between atoms: _148  and  _149
REMARK   60  A    between atoms: _154  and  _155
REMARK   61  A    between atoms: _157  and  _159
REMARK   62  A    between atoms: _159  and  _160
REMARK   63  A    between atoms: _159  and  _162
REMARK   64  A    between atoms: _165  and  _167
REMARK   65  A    between atoms: _167  and  _168
REMARK   66  A    between atoms: _167  and  _170
REMARK   67  A    between atoms: _170  and  _171
REMARK   68  A    between atoms: _177  and  _178
REMARK   69  A    between atoms: _183  and  _185
REMARK   70  A    between atoms: _185  and  _186
REMARK   71  A    between atoms: _185  and  _188
REMARK   72  A    between atoms: _188  and  _189
REMARK   73  A    between atoms: _191  and  _193
REMARK   74  A    between atoms: _193  and  _194
REMARK   75  A    between atoms: _193  and  _196
REMARK   76  A    between atoms: _196  and  _197
REMARK   77  A    between atoms: _197  and  _198
REMARK   78  A    between atoms: _201  and  _203
REMARK   79  A    between atoms: _203  and  _204
REMARK   80  A    between atoms: _203  and  _206
REMARK   81  A    between atoms: _206  and  _207
REMARK   82  A    between atoms: _212  and  _213
REMARK   83  A    between atoms: _215  and  _217
REMARK   84  A    between atoms: _217  and  _218
REMARK   85  A    between atoms: _217  and  _220
REMARK   86  A    between atoms: _220  and  _221
REMARK   87  A    between atoms: _226  and  _228
REMARK   88  A    between atoms: _228  and  _229
REMARK   89  A    between atoms: _228  and  _231
REMARK   90  A    between atoms: _231  and  _232
REMARK   91  A    between atoms: _237  and  _239
REMARK   92  A    between atoms: _239  and  _240
REMARK   93  A    between atoms: _239  and  _242
REMARK   94  A    between atoms: _242  and  _243
REMARK   95  A    between atoms: _243  and  _244
REMARK   96  A    between atoms: _246  and  _248
REMARK   97  A    between atoms: _248  and  _249
REMARK   98  A    between atoms: _248  and  _251
REMARK   99  A    between atoms: _251  and  _252
REMARK  100  A    between atoms: _257  and  _258
REMARK  101  A    between atoms: _260  and  _262
REMARK  102  A    between atoms: _262  and  _263
REMARK  103  A    between atoms: _262  and  _265
REMARK  104  A    between atoms: _265  and  _266
REMARK  105  A    between atoms: _269  and  _271
REMARK  106  A    between atoms: _271  and  _272
REMARK  107  A    between atoms: _271  and  _274
REMARK  108  A    between atoms: _274  and  _275
REMARK  109  A    between atoms: _275  and  _492
REMARK  110  A    between atoms: _276  and  _278
REMARK  111  A    between atoms: _278  and  _279
REMARK  112  A    between atoms: _278  and  _281
REMARK  113  A    between atoms: _281  and  _282
REMARK  114  A    between atoms: _285  and  _287
REMARK  115  A    between atoms: _287  and  _288
REMARK  116  A    between atoms: _287  and  _290
REMARK  117  A    between atoms: _290  and  _291
REMARK  118  A    between atoms: _296  and  _297
REMARK  119  A    between atoms: _299  and  _301
REMARK  120  A    between atoms: _301  and  _302
REMARK  121  A    between atoms: _301  and  _304
REMARK  122  A    between atoms: _304  and  _305
REMARK  123  A    between atoms: _310  and  _311
REMARK  124  A    between atoms: _313  and  _315
REMARK  125  A    between atoms: _315  and  _316
REMARK  126  A    between atoms: _315  and  _318
REMARK  127  A    between atoms: _318  and  _319
REMARK  128  A    between atoms: _319  and  _320
REMARK  129  A    between atoms: _323  and  _325
REMARK  130  A    between atoms: _325  and  _326
REMARK  131  A    between atoms: _325  and  _328
REMARK  132  A    between atoms: _328  and  _329
REMARK  133  A    between atoms: _334  and  _335
REMARK  134  A    between atoms: _337  and  _339
REMARK  135  A    between atoms: _339  and  _340
REMARK  136  A    between atoms: _339  and  _342
REMARK  137  A    between atoms: _342  and  _343
REMARK  138  A    between atoms: _348  and  _350
REMARK  139  A    between atoms: _350  and  _351
REMARK  140  A    between atoms: _350  and  _353
REMARK  141  A    between atoms: _353  and  _354
REMARK  142  A    between atoms: _357  and  _359
REMARK  143  A    between atoms: _359  and  _360
REMARK  144  A    between atoms: _359  and  _362
REMARK  145  A    between atoms: _362  and  _363
REMARK  146  A    between atoms: _368  and  _370
REMARK  147  A    between atoms: _370  and  _371
REMARK  148  A    between atoms: _370  and  _373
REMARK  149  A    between atoms: _373  and  _374
REMARK  150  A    between atoms: _384  and  _386
REMARK  151  A    between atoms: _386  and  _387
REMARK  152  A    between atoms: _386  and  _389
REMARK  153  A    between atoms: _389  and  _390
REMARK  154  A    between atoms: _396  and  _398
REMARK  155  A    between atoms: _398  and  _399
REMARK  156  A    between atoms: _398  and  _401
REMARK  157  A    between atoms: _401  and  _402
REMARK  158  A    between atoms: _405  and  _407
REMARK  159  A    between atoms: _407  and  _408
REMARK  160  A    between atoms: _407  and  _410
REMARK  161  A    between atoms: _410  and  _411
REMARK  162  A    between atoms: _414  and  _416
REMARK  163  A    between atoms: _416  and  _417
REMARK  164  A    between atoms: _416  and  _419
REMARK  165  A    between atoms: _419  and  _420
REMARK  166  A    between atoms: _420  and  _421
REMARK  167  A    between atoms: _421  and  _422
REMARK  168  A    between atoms: _431  and  _433
REMARK  169  A    between atoms: _433  and  _434
REMARK  170  A    between atoms: _433  and  _436
REMARK  171  A    between atoms: _436  and  _437
REMARK  172  A    between atoms: _442  and  _444
REMARK  173  A    between atoms: _444  and  _445
REMARK  174  A    between atoms: _444  and  _447
REMARK  175  A    between atoms: _447  and  _448
REMARK  176  A    between atoms: _448  and  _449
REMARK  177  A    between atoms: _449  and  _450
REMARK  178  A    between atoms: _459  and  _461
REMARK  179  A    between atoms: _461  and  _462
REMARK  180  A    between atoms: _465  and  _467
REMARK  181  A    between atoms: _467  and  _468
REMARK  182  A    between atoms: _470  and  _472
REMARK  183  A    between atoms: _472  and  _473
REMARK  184  A    between atoms: _472  and  _475
REMARK  185  A    between atoms: _475  and  _476
REMARK  186  A    between atoms: _486  and  _488
REMARK  187  A    between atoms: _488  and  _489
REMARK  188  A    between atoms: _488  and  _491
REMARK  189  A    between atoms: _491  and  _492
REMARK  190  A    between atoms: _493  and  _495
REMARK  191  A    between atoms: _495  and  _496
REMARK  192  A    between atoms: _499  and  _501
REMARK  193  A    between atoms: _501  and  _502
REMARK  194  A    between atoms: _501  and  _504
REMARK  195  A    between atoms: _504  and  _505
REMARK  196  A    between atoms: _508  and  _510
REMARK  197  A    between atoms: _510  and  _511
REMARK  198  A    between atoms: _510  and  _513
REMARK  199  A    between atoms: _513  and  _514
REMARK  200  A    between atoms: _519  and  _520
REMARK  201  A    between atoms: _522  and  _524
REMARK  202  A    between atoms: _524  and  _525
REMARK  203  A    between atoms: _524  and  _527
REMARK  204  A    between atoms: _527  and  _528
REMARK  205  A    between atoms: _530  and  _532
REMARK  206  A    between atoms: _532  and  _533
REMARK  207  A    between atoms: _532  and  _535
REMARK  208  A    between atoms: _535  and  _536
REMARK  209  A    between atoms: _542  and  _544
REMARK  210  A    between atoms: _544  and  _545
REMARK  211  A    between atoms: _544  and  _547
REMARK  212  A    between atoms: _547  and  _548
REMARK  213  A    between atoms: _551  and  _553
REMARK  214  A    between atoms: _553  and  _554
REMARK  215  A    between atoms: _553  and  _556
REMARK  216  A    between atoms: _556  and  _557
REMARK  217  A    between atoms: _559  and  _561
REMARK  218  A    between atoms: _561  and  _562
REMARK  219  A    between atoms: _561  and  _564
REMARK  220  A    between atoms: _564  and  _565
REMARK  221  A    between atoms: _570  and  _572
REMARK  222  A    between atoms: _572  and  _573
REMARK  223  A    between atoms: _572  and  _575
REMARK  224  A    between atoms: _575  and  _576
REMARK  225  A    between atoms: _581  and  _583
REMARK  226  A    between atoms: _583  and  _584
REMARK  227  A    between atoms: _583  and  _586
REMARK  228  A    between atoms: _586  and  _587
REMARK  229  A    between atoms: _590  and  _592
REMARK  230  A    between atoms: _592  and  _593
REMARK  231  A    between atoms: _592  and  _595
REMARK  232  A    between atoms: _595  and  _596
REMARK  233  A    between atoms: _601  and  _602
REMARK  234  A    between atoms: _604  and  _606
REMARK  235  A    between atoms: _606  and  _607
REMARK  236  A    between atoms: _606  and  _609
REMARK  237  A    between atoms: _609  and  _610
REMARK  238  A    between atoms: _615  and  _616
REMARK  239  A    between atoms: _618  and  _620
REMARK  240  A    between atoms: _620  and  _621
REMARK  241  A    between atoms: _620  and  _623
REMARK  242  A    between atoms: _626  and  _628
REMARK  243  A    between atoms: _628  and  _629
REMARK  244  A    between atoms: _628  and  _631
REMARK  245  A    between atoms: _631  and  _632
REMARK  246  A    between atoms: _637  and  _639
REMARK  247  A    between atoms: _639  and  _640
REMARK  248  A    between atoms: _643  and  _645
REMARK  249  A    between atoms: _645  and  _646
REMARK  250  A    between atoms: _645  and  _648
REMARK  251  A    between atoms: _648  and  _649
REMARK  252  A    between atoms: _649  and  _650
REMARK  253  A    between atoms: _650  and  _651
REMARK  254  A    between atoms: _660  and  _662
REMARK  255  A    between atoms: _662  and  _663
REMARK  256  A    between atoms: _662  and  _665
REMARK  257  A    between atoms: _665  and  _666
REMARK  258  A    between atoms: _669  and  _671
REMARK  259  A    between atoms: _671  and  _672
REMARK  260  A    between atoms: _671  and  _674
REMARK  261  A    between atoms: _674  and  _675
REMARK  262  A    between atoms: _678  and  _680
REMARK  263  A    between atoms: _680  and  _681
REMARK  264  A    between atoms: _680  and  _683
REMARK  265  A    between atoms: _683  and  _684
REMARK                            x       y       z     vdW  Elec       q    Type
REMARK                         _______ _______ _______ _____ _____    ______ ____
ROOT
ATOM      1  O   HOH     1      -4.482  27.384  13.722  0.00  0.00    +0.000 OA
ENDROOT
TORSDOF 0
REMARK  Name = ../refined-set-2016/1b9j/1b9j_pocket.pdb
REMARK  265 active torsions:
REMARK  status: ('A' for Active; 'I' for Inactive)
REMARK    1  A    between atoms: _1  and  _3
REMARK    2  A    between atoms: _3  and  _4
REMARK    3  A    between atoms: _3  and  _6
REMARK    4  A    between atoms: _6  and  _7
REMARK    5  A    between atoms: _12  and  _14
REMARK    6  A    between atoms: _14  and  _15
REMARK    7  A    between atoms: _17  and  _19
REMARK    8  A    between atoms: _19  and  _20
REMARK    9  A    between atoms: _19  and  _22
REMARK   10  A    between atoms: _22  and  _23
REMARK   11  A    between atoms: _25  and  _27
REMARK   12  A    between atoms: _27  and  _28
REMARK   13  A    between atoms: _27  and  _30
REMARK   14  A    between atoms: _30  and  _31
REMARK   15  A    between atoms: _31  and  _32
REMARK   16  A    between atoms: _37  and  _39
REMARK   17  A    between atoms: _39  and  _40
REMARK   18  A    between atoms: _39  and  _42
REMARK   19  A    between atoms: _42  and  _43
REMARK   20  A    between atoms: _46  and  _48
REMARK   21  A    between atoms: _48  and  _49
REMARK   22  A    between atoms: _48  and  _51
REMARK   23  A    between atoms: _51  and  _52
REMARK   24  A    between atoms: _52  and  _53
REMARK   25  A    between atoms: _56  and  _58
REMARK   26  A    between atoms: _58  and  _59
REMARK   27  A    between atoms: _61  and  _63
REMARK   28  A    between atoms: _63  and  _64
REMARK   29  A    between atoms: _63  and  _66
REMARK   30  A    between atoms: _70  and  _71
REMARK   31  A    between atoms: _76  and  _78
REMARK   32  A    between atoms: _78  and  _79
REMARK   33  A    between atoms: _78  and  _81
REMARK   34  A    between atoms: _81  and  _82
REMARK   35  A    between atoms: _82  and  _83
REMARK   36  A    between atoms: _86  and  _88
REMARK   37  A    between atoms: _88  and  _89
REMARK   38  A    between atoms: _88  and  _91
REMARK   39  A    between atoms: _91  and  _92
REMARK   40  A    between atoms: _94  and  _96
REMARK   41  A    between atoms: _96  and  _97
REMARK   42  A    between atoms: _96  and  _99
REMARK   43  A    between atoms: _99  and  _100
REMARK   44  A    between atoms: _105  and  _107
REMARK   45  A    between atoms: _107  and  _108
REMARK   46  A    between atoms: _107  and  _110
REMARK   47  A    between atoms: _110  and  _111
REMARK   48  A    between atoms: _111  and  _112
REMARK   49  A    between atoms: _112  and  _113
REMARK   50  A    between atoms: _123  and  _124
REMARK   51  A    between atoms: _129  and  _131
REMARK   52  A    between atoms: _131  and  _132
REMARK   53  A    between atoms: _131  and  _134
REMARK   54  A    between atoms: _134  and  _135
REMARK   55  A    between atoms: _140  and  _141
REMARK   56  A    between atoms: _143  and  _145
REMARK   57  A    between atoms: _145  and  _146
REMARK   58  A    between atoms: _145  and  _148
REMARK   59  A    between atoms: _148  and  _149
REMARK   60  A    between atoms: _154  and  _155
REMARK   61  A    between atoms: _157  and  _159
REMARK   62  A    between atoms: _159  and  _160
REMARK   63  A    between atoms: _159  and  _162
REMARK   64  A    between atoms: _165  and  _167
REMARK   65  A    between atoms: _167  and  _168
REMARK   66  A    between atoms: _167  and  _170
REMARK   67  A    between atoms: _170  and  _171
REMARK   68  A    between atoms: _177  and  _178
REMARK   69  A    between atoms: _183  and  _185
REMARK   70  A    between atoms: _185  and  _186
REMARK   71  A    between atoms: _185  and  _188
REMARK   72  A    between atoms: _188  and  _189
REMARK   73  A    between atoms: _191  and  _193
REMARK   74  A    between atoms: _193  and  _194
REMARK   75  A    between atoms: _193  and  _196
REMARK   76  A    between atoms: _196  and  _197
REMARK   77  A    between atoms: _197  and  _198
REMARK   78  A    between atoms: _201  and  _203
REMARK   79  A    between atoms: _203  and  _204
REMARK   80  A    between atoms: _203  and  _206
REMARK   81  A    between atoms: _206  and  _207
REMARK   82  A    between atoms: _212  and  _213
REMARK   83  A    between atoms: _215  and  _217
REMARK   84  A    between atoms: _217  and  _218
REMARK   85  A    between atoms: _217  and  _220
REMARK   86  A    between atoms: _220  and  _221
REMARK   87  A    between atoms: _226  and  _228
REMARK   88  A    between atoms: _228  and  _229
REMARK   89  A    between atoms: _228  and  _231
REMARK   90  A    between atoms: _231  and  _232
REMARK   91  A    between atoms: _237  and  _239
REMARK   92  A    between atoms: _239  and  _240
REMARK   93  A    between atoms: _239  and  _242
REMARK   94  A    between atoms: _242  and  _243
REMARK   95  A    between atoms: _243  and  _244
REMARK   96  A    between atoms: _246  and  _248
REMARK   97  A    between atoms: _248  and  _249
REMARK   98  A    between atoms: _248  and  _251
REMARK   99  A    between atoms: _251  and  _252
REMARK  100  A    between atoms: _257  and  _258
REMARK  101  A    between atoms: _260  and  _262
REMARK  102  A    between atoms: _262  and  _263
REMARK  103  A    between atoms: _262  and  _265
REMARK  104  A    between atoms: _265  and  _266
REMARK  105  A    between atoms: _269  and  _271
REMARK  106  A    between atoms: _271  and  _272
REMARK  107  A    between atoms: _271  and  _274
REMARK  108  A    between atoms: _274  and  _275
REMARK  109  A    between atoms: _275  and  _492
REMARK  110  A    between atoms: _276  and  _278
REMARK  111  A    between atoms: _278  and  _279
REMARK  112  A    between atoms: _278  and  _281
REMARK  113  A    between atoms: _281  and  _282
REMARK  114  A    between atoms: _285  and  _287
REMARK  115  A    between atoms: _287  and  _288
REMARK  116  A    between atoms: _287  and  _290
REMARK  117  A    between atoms: _290  and  _291
REMARK  118  A    between atoms: _296  and  _297
REMARK  119  A    between atoms: _299  and  _301
REMARK  120  A    between atoms: _301  and  _302
REMARK  121  A    between atoms: _301  and  _304
REMARK  122  A    between atoms: _304  and  _305
REMARK  123  A    between atoms: _310  and  _311
REMARK  124  A    between atoms: _313  and  _315
REMARK  125  A    between atoms: _315  and  _316
REMARK  126  A    between atoms: _315  and  _318
REMARK  127  A    between atoms: _318  and  _319
REMARK  128  A    between atoms: _319  and  _320
REMARK  129  A    between atoms: _323  and  _325
REMARK  130  A    between atoms: _325  and  _326
REMARK  131  A    between atoms: _325  and  _328
REMARK  132  A    between atoms: _328  and  _329
REMARK  133  A    between atoms: _334  and  _335
REMARK  134  A    between atoms: _337  and  _339
REMARK  135  A    between atoms: _339  and  _340
REMARK  136  A    between atoms: _339  and  _342
REMARK  137  A    between atoms: _342  and  _343
REMARK  138  A    between atoms: _348  and  _350
REMARK  139  A    between atoms: _350  and  _351
REMARK  140  A    between atoms: _350  and  _353
REMARK  141  A    between atoms: _353  and  _354
REMARK  142  A    between atoms: _357  and  _359
REMARK  143  A    between atoms: _359  and  _360
REMARK  144  A    between atoms: _359  and  _362
REMARK  145  A    between atoms: _362  and  _363
REMARK  146  A    between atoms: _368  and  _370
REMARK  147  A    between atoms: _370  and  _371
REMARK  148  A    between atoms: _370  and  _373
REMARK  149  A    between atoms: _373  and  _374
REMARK  150  A    between atoms: _384  and  _386
REMARK  151  A    between atoms: _386  and  _387
REMARK  152  A    between atoms: _386  and  _389
REMARK  153  A    between atoms: _389  and  _390
REMARK  154  A    between atoms: _396  and  _398
REMARK  155  A    between atoms: _398  and  _399
REMARK  156  A    between atoms: _398  and  _401
REMARK  157  A    between atoms: _401  and  _402
REMARK  158  A    between atoms: _405  and  _407
REMARK  159  A    between atoms: _407  and  _408
REMARK  160  A    between atoms: _407  and  _410
REMARK  161  A    between atoms: _410  and  _411
REMARK  162  A    between atoms: _414  and  _416
REMARK  163  A    between atoms: _416  and  _417
REMARK  164  A    between atoms: _416  and  _419
REMARK  165  A    between atoms: _419  and  _420
REMARK  166  A    between atoms: _420  and  _421
REMARK  167  A    between atoms: _421  and  _422
REMARK  168  A    between atoms: _431  and  _433
REMARK  169  A    between atoms: _433  and  _434
REMARK  170  A    between atoms: _433  and  _436
REMARK  171  A    between atoms: _436  and  _437
REMARK  172  A    between atoms: _442  and  _444
REMARK  173  A    between atoms: _444  and  _445
REMARK  174  A    between atoms: _444  and  _447
REMARK  175  A    between atoms: _447  and  _448
REMARK  176  A    between atoms: _448  and  _449
REMARK  177  A    between atoms: _449  and  _450
REMARK  178  A    between atoms: _459  and  _461
REMARK  179  A    between atoms: _461  and  _462
REMARK  180  A    between atoms: _465  and  _467
REMARK  181  A    between atoms: _467  and  _468
REMARK  182  A    between atoms: _470  and  _472
REMARK  183  A    between atoms: _472  and  _473
REMARK  184  A    between atoms: _472  and  _475
REMARK  185  A    between atoms: _475  and  _476
REMARK  186  A    between atoms: _486  and  _488
REMARK  187  A    between atoms: _488  and  _489
REMARK  188  A    between atoms: _488  and  _491
REMARK  189  A    between atoms: _491  and  _492
REMARK  190  A    between atoms: _493  and  _495
REMARK  191  A    between atoms: _495  and  _496
REMARK  192  A    between atoms: _499  and  _501
REMARK  193  A    between atoms: _501  and  _502
REMARK  194  A    between atoms: _501  and  _504
REMARK  195  A    between atoms: _504  and  _505
REMARK  196  A    between atoms: _508  and  _510
REMARK  197  A    between atoms: _510  and  _511
REMARK  198  A    between atoms: _510  and  _513
REMARK  199  A    between atoms: _513  and  _514
REMARK  200  A    between atoms: _519  and  _520
REMARK  201  A    between atoms: _522  and  _524
REMARK  202  A    between atoms: _524  and  _525
REMARK  203  A    between atoms: _524  and  _527
REMARK  204  A    between atoms: _527  and  _528
REMARK  205  A    between atoms: _530  and  _532
REMARK  206  A    between atoms: _532  and  _533
REMARK  207  A    between atoms: _532  and  _535
REMARK  208  A    between atoms: _535  and  _536
REMARK  209  A    between atoms: _542  and  _544
REMARK  210  A    between atoms: _544  and  _545
REMARK  211  A    between atoms: _544  and  _547
REMARK  212  A    between atoms: _547  and  _548
REMARK  213  A    between atoms: _551  and  _553
REMARK  214  A    between atoms: _553  and  _554
REMARK  215  A    between atoms: _553  and  _556
REMARK  216  A    between atoms: _556  and  _557
REMARK  217  A    between atoms: _559  and  _561
REMARK  218  A    between atoms: _561  and  _562
REMARK  219  A    between atoms: _561  and  _564
REMARK  220  A    between atoms: _564  and  _565
REMARK  221  A    between atoms: _570  and  _572
REMARK  222  A    between atoms: _572  and  _573
REMARK  223  A    between atoms: _572  and  _575
REMARK  224  A    between atoms: _575  and  _576
REMARK  225  A    between atoms: _581  and  _583
REMARK  226  A    between atoms: _583  and  _584
REMARK  227  A    between atoms: _583  and  _586
REMARK  228  A    between atoms: _586  and  _587
REMARK  229  A    between atoms: _590  and  _592
REMARK  230  A    between atoms: _592  and  _593
REMARK  231  A    between atoms: _592  and  _595
REMARK  232  A    between atoms: _595  and  _596
REMARK  233  A    between atoms: _601  and  _602
REMARK  234  A    between atoms: _604  and  _606
REMARK  235  A    between atoms: _606  and  _607
REMARK  236  A    between atoms: _606  and  _609
REMARK  237  A    between atoms: _609  and  _610
REMARK  238  A    between atoms: _615  and  _616
REMARK  239  A    between atoms: _618  and  _620
REMARK  240  A    between atoms: _620  and  _621
REMARK  241  A    between atoms: _620  and  _623
REMARK  242  A    between atoms: _626  and  _628
REMARK  243  A    between atoms: _628  and  _629
REMARK  244  A    between atoms: _628  and  _631
REMARK  245  A    between atoms: _631  and  _632
REMARK  246  A    between atoms: _637  and  _639
REMARK  247  A    between atoms: _639  and  _640
REMARK  248  A    between atoms: _643  and  _645
REMARK  249  A    between atoms: _645  and  _646
REMARK  250  A    between atoms: _645  and  _648
REMARK  251  A    between atoms: _648  and  _649
REMARK  252  A    between atoms: _649  and  _650
REMARK  253  A    between atoms: _650  and  _651
REMARK  254  A    between atoms: _660  and  _662
REMARK  255  A    between atoms: _662  and  _663
REMARK  256  A    between atoms: _662  and  _665
REMARK  257  A    between atoms: _665  and  _666
REMARK  258  A    between atoms: _669  and  _671
REMARK  259  A    between atoms: _671  and  _672
REMARK  260  A    between atoms: _671  and  _674
REMARK  261  A    between atoms: _674  and  _675
REMARK  262  A    between atoms: _678  and  _680
REMARK  263  A    between atoms: _680  and  _681
REMARK  264  A    between atoms: _680  and  _683
REMARK  265  A    between atoms: _683  and  _684
REMARK                            x       y       z     vdW  Elec       q    Type
REMARK                         _______ _______ _______ _____ _____    ______ ____
ROOT
ATOM      1  O   HOH     1      -0.297  15.154   5.064  0.00  0.00    +0.000 OA
ENDROOT
TORSDOF 0
REMARK  Name = ../refined-set-2016/1b9j/1b9j_pocket.pdb
REMARK  265 active torsions:
REMARK  status: ('A' for Active; 'I' for Inactive)
REMARK    1  A    between atoms: _1  and  _3
REMARK    2  A    between atoms: _3  and  _4
REMARK    3  A    between atoms: _3  and  _6
REMARK    4  A    between atoms: _6  and  _7
REMARK    5  A    between atoms: _12  and  _14
REMARK    6  A    between atoms: _14  and  _15
REMARK    7  A    between atoms: _17  and  _19
REMARK    8  A    between atoms: _19  and  _20
REMARK    9  A    between atoms: _19  and  _22
REMARK   10  A    between atoms: _22  and  _23
REMARK   11  A    between atoms: _25  and  _27
REMARK   12  A    between atoms: _27  and  _28
REMARK   13  A    between atoms: _27  and  _30
REMARK   14  A    between atoms: _30  and  _31
REMARK   15  A    between atoms: _31  and  _32
REMARK   16  A    between atoms: _37  and  _39
REMARK   17  A    between atoms: _39  and  _40
REMARK   18  A    between atoms: _39  and  _42
REMARK   19  A    between atoms: _42  and  _43
REMARK   20  A    between atoms: _46  and  _48
REMARK   21  A    between atoms: _48  and  _49
REMARK   22  A    between atoms: _48  and  _51
REMARK   23  A    between atoms: _51  and  _52
REMARK   24  A    between atoms: _52  and  _53
REMARK   25  A    between atoms: _56  and  _58
REMARK   26  A    between atoms: _58  and  _59
REMARK   27  A    between atoms: _61  and  _63
REMARK   28  A    between atoms: _63  and  _64
REMARK   29  A    between atoms: _63  and  _66
REMARK   30  A    between atoms: _70  and  _71
REMARK   31  A    between atoms: _76  and  _78
REMARK   32  A    between atoms: _78  and  _79
REMARK   33  A    between atoms: _78  and  _81
REMARK   34  A    between atoms: _81  and  _82
REMARK   35  A    between atoms: _82  and  _83
REMARK   36  A    between atoms: _86  and  _88
REMARK   37  A    between atoms: _88  and  _89
REMARK   38  A    between atoms: _88  and  _91
REMARK   39  A    between atoms: _91  and  _92
REMARK   40  A    between atoms: _94  and  _96
REMARK   41  A    between atoms: _96  and  _97
REMARK   42  A    between atoms: _96  and  _99
REMARK   43  A    between atoms: _99  and  _100
REMARK   44  A    between atoms: _105  and  _107
REMARK   45  A    between atoms: _107  and  _108
REMARK   46  A    between atoms: _107  and  _110
REMARK   47  A    between atoms: _110  and  _111
REMARK   48  A    between atoms: _111  and  _112
REMARK   49  A    between atoms: _112  and  _113
REMARK   50  A    between atoms: _123  and  _124
REMARK   51  A    between atoms: _129  and  _131
REMARK   52  A    between atoms: _131  and  _132
REMARK   53  A    between atoms: _131  and  _134
REMARK   54  A    between atoms: _134  and  _135
REMARK   55  A    between atoms: _140  and  _141
REMARK   56  A    between atoms: _143  and  _145
REMARK   57  A    between atoms: _145  and  _146
REMARK   58  A    between atoms: _145  and  _148
REMARK   59  A    between atoms: _148  and  _149
REMARK   60  A    between atoms: _154  and  _155
REMARK   61  A    between atoms: _157  and  _159
REMARK   62  A    between atoms: _159  and  _160
REMARK   63  A    between atoms: _159  and  _162
REMARK   64  A    between atoms: _165  and  _167
REMARK   65  A    between atoms: _167  and  _168
REMARK   66  A    between atoms: _167  and  _170
REMARK   67  A    between atoms: _170  and  _171
REMARK   68  A    between atoms: _177  and  _178
REMARK   69  A    between atoms: _183  and  _185
REMARK   70  A    between atoms: _185  and  _186
REMARK   71  A    between atoms: _185  and  _188
REMARK   72  A    between atoms: _188  and  _189
REMARK   73  A    between atoms: _191  and  _193
REMARK   74  A    between atoms: _193  and  _194
REMARK   75  A    between atoms: _193  and  _196
REMARK   76  A    between atoms: _196  and  _197
REMARK   77  A    between atoms: _197  and  _198
REMARK   78  A    between atoms: _201  and  _203
REMARK   79  A    between atoms: _203  and  _204
REMARK   80  A    between atoms: _203  and  _206
REMARK   81  A    between atoms: _206  and  _207
REMARK   82  A    between atoms: _212  and  _213
REMARK   83  A    between atoms: _215  and  _217
REMARK   84  A    between atoms: _217  and  _218
REMARK   85  A    between atoms: _217  and  _220
REMARK   86  A    between atoms: _220  and  _221
REMARK   87  A    between atoms: _226  and  _228
REMARK   88  A    between atoms: _228  and  _229
REMARK   89  A    between atoms: _228  and  _231
REMARK   90  A    between atoms: _231  and  _232
REMARK   91  A    between atoms: _237  and  _239
REMARK   92  A    between atoms: _239  and  _240
REMARK   93  A    between atoms: _239  and  _242
REMARK   94  A    between atoms: _242  and  _243
REMARK   95  A    between atoms: _243  and  _244
REMARK   96  A    between atoms: _246  and  _248
REMARK   97  A    between atoms: _248  and  _249
REMARK   98  A    between atoms: _248  and  _251
REMARK   99  A    between atoms: _251  and  _252
REMARK  100  A    between atoms: _257  and  _258
REMARK  101  A    between atoms: _260  and  _262
REMARK  102  A    between atoms: _262  and  _263
REMARK  103  A    between atoms: _262  and  _265
REMARK  104  A    between atoms: _265  and  _266
REMARK  105  A    between atoms: _269  and  _271
REMARK  106  A    between atoms: _271  and  _272
REMARK  107  A    between atoms: _271  and  _274
REMARK  108  A    between atoms: _274  and  _275
REMARK  109  A    between atoms: _275  and  _492
REMARK  110  A    between atoms: _276  and  _278
REMARK  111  A    between atoms: _278  and  _279
REMARK  112  A    between atoms: _278  and  _281
REMARK  113  A    between atoms: _281  and  _282
REMARK  114  A    between atoms: _285  and  _287
REMARK  115  A    between atoms: _287  and  _288
REMARK  116  A    between atoms: _287  and  _290
REMARK  117  A    between atoms: _290  and  _291
REMARK  118  A    between atoms: _296  and  _297
REMARK  119  A    between atoms: _299  and  _301
REMARK  120  A    between atoms: _301  and  _302
REMARK  121  A    between atoms: _301  and  _304
REMARK  122  A    between atoms: _304  and  _305
REMARK  123  A    between atoms: _310  and  _311
REMARK  124  A    between atoms: _313  and  _315
REMARK  125  A    between atoms: _315  and  _316
REMARK  126  A    between atoms: _315  and  _318
REMARK  127  A    between atoms: _318  and  _319
REMARK  128  A    between atoms: _319  and  _320
REMARK  129  A    between atoms: _323  and  _325
REMARK  130  A    between atoms: _325  and  _326
REMARK  131  A    between atoms: _325  and  _328
REMARK  132  A    between atoms: _328  and  _329
REMARK  133  A    between atoms: _334  and  _335
REMARK  134  A    between atoms: _337  and  _339
REMARK  135  A    between atoms: _339  and  _340
REMARK  136  A    between atoms: _339  and  _342
REMARK  137  A    between atoms: _342  and  _343
REMARK  138  A    between atoms: _348  and  _350
REMARK  139  A    between atoms: _350  and  _351
REMARK  140  A    between atoms: _350  and  _353
REMARK  141  A    between atoms: _353  and  _354
REMARK  142  A    between atoms: _357  and  _359
REMARK  143  A    between atoms: _359  and  _360
REMARK  144  A    between atoms: _359  and  _362
REMARK  145  A    between atoms: _362  and  _363
REMARK  146  A    between atoms: _368  and  _370
REMARK  147  A    between atoms: _370  and  _371
REMARK  148  A    between atoms: _370  and  _373
REMARK  149  A    between atoms: _373  and  _374
REMARK  150  A    between atoms: _384  and  _386
REMARK  151  A    between atoms: _386  and  _387
REMARK  152  A    between atoms: _386  and  _389
REMARK  153  A    between atoms: _389  and  _390
REMARK  154  A    between atoms: _396  and  _398
REMARK  155  A    between atoms: _398  and  _399
REMARK  156  A    between atoms: _398  and  _401
REMARK  157  A    between atoms: _401  and  _402
REMARK  158  A    between atoms: _405  and  _407
REMARK  159  A    between atoms: _407  and  _408
REMARK  160  A    between atoms: _407  and  _410
REMARK  161  A    between atoms: _410  and  _411
REMARK  162  A    between atoms: _414  and  _416
REMARK  163  A    between atoms: _416  and  _417
REMARK  164  A    between atoms: _416  and  _419
REMARK  165  A    between atoms: _419  and  _420
REMARK  166  A    between atoms: _420  and  _421
REMARK  167  A    between atoms: _421  and  _422
REMARK  168  A    between atoms: _431  and  _433
REMARK  169  A    between atoms: _433  and  _434
REMARK  170  A    between atoms: _433  and  _436
REMARK  171  A    between atoms: _436  and  _437
REMARK  172  A    between atoms: _442  and  _444
REMARK  173  A    between atoms: _444  and  _445
REMARK  174  A    between atoms: _444  and  _447
REMARK  175  A    between atoms: _447  and  _448
REMARK  176  A    between atoms: _448  and  _449
REMARK  177  A    between atoms: _449  and  _450
REMARK  178  A    between atoms: _459  and  _461
REMARK  179  A    between atoms: _461  and  _462
REMARK  180  A    between atoms: _465  and  _467
REMARK  181  A    between atoms: _467  and  _468
REMARK  182  A    between atoms: _470  and  _472
REMARK  183  A    between atoms: _472  and  _473
REMARK  184  A    between atoms: _472  and  _475
REMARK  185  A    between atoms: _475  and  _476
REMARK  186  A    between atoms: _486  and  _488
REMARK  187  A    between atoms: _488  and  _489
REMARK  188  A    between atoms: _488  and  _491
REMARK  189  A    between atoms: _491  and  _492
REMARK  190  A    between atoms: _493  and  _495
REMARK  191  A    between atoms: _495  and  _496
REMARK  192  A    between atoms: _499  and  _501
REMARK  193  A    between atoms: _501  and  _502
REMARK  194  A    between atoms: _501  and  _504
REMARK  195  A    between atoms: _504  and  _505
REMARK  196  A    between atoms: _508  and  _510
REMARK  197  A    between atoms: _510  and  _511
REMARK  198  A    between atoms: _510  and  _513
REMARK  199  A    between atoms: _513  and  _514
REMARK  200  A    between atoms: _519  and  _520
REMARK  201  A    between atoms: _522  and  _524
REMARK  202  A    between atoms: _524  and  _525
REMARK  203  A    between atoms: _524  and  _527
REMARK  204  A    between atoms: _527  and  _528
REMARK  205  A    between atoms: _530  and  _532
REMARK  206  A    between atoms: _532  and  _533
REMARK  207  A    between atoms: _532  and  _535
REMARK  208  A    between atoms: _535  and  _536
REMARK  209  A    between atoms: _542  and  _544
REMARK  210  A    between atoms: _544  and  _545
REMARK  211  A    between atoms: _544  and  _547
REMARK  212  A    between atoms: _547  and  _548
REMARK  213  A    between atoms: _551  and  _553
REMARK  214  A    between atoms: _553  and  _554
REMARK  215  A    between atoms: _553  and  _556
REMARK  216  A    between atoms: _556  and  _557
REMARK  217  A    between atoms: _559  and  _561
REMARK  218  A    between atoms: _561  and  _562
REMARK  219  A    between atoms: _561  and  _564
REMARK  220  A    between atoms: _564  and  _565
REMARK  221  A    between atoms: _570  and  _572
REMARK  222  A    between atoms: _572  and  _573
REMARK  223  A    between atoms: _572  and  _575
REMARK  224  A    between atoms: _575  and  _576
REMARK  225  A    between atoms: _581  and  _583
REMARK  226  A    between atoms: _583  and  _584
REMARK  227  A    between atoms: _583  and  _586
REMARK  228  A    between atoms: _586  and  _587
REMARK  229  A    between atoms: _590  and  _592
REMARK  230  A    between atoms: _592  and  _593
REMARK  231  A    between atoms: _592  and  _595
REMARK  232  A    between atoms: _595  and  _596
REMARK  233  A    between atoms: _601  and  _602
REMARK  234  A    between atoms: _604  and  _606
REMARK  235  A    between atoms: _606  and  _607
REMARK  236  A    between atoms: _606  and  _609
REMARK  237  A    between atoms: _609  and  _610
REMARK  238  A    between atoms: _615  and  _616
REMARK  239  A    between atoms: _618  and  _620
REMARK  240  A    between atoms: _620  and  _621
REMARK  241  A    between atoms: _620  and  _623
REMARK  242  A    between atoms: _626  and  _628
REMARK  243  A    between atoms: _628  and  _629
REMARK  244  A    between atoms: _628  and  _631
REMARK  245  A    between atoms: _631  and  _632
REMARK  246  A    between atoms: _637  and  _639
REMARK  247  A    between atoms: _639  and  _640
REMARK  248  A    between atoms: _643  and  _645
REMARK  249  A    between atoms: _645  and  _646
REMARK  250  A    between atoms: _645  and  _648
REMARK  251  A    between atoms: _648  and  _649
REMARK  252  A    between atoms: _649  and  _650
REMARK  253  A    between atoms: _650  and  _651
REMARK  254  A    between atoms: _660  and  _662
REMARK  255  A    between atoms: _662  and  _663
REMARK  256  A    between atoms: _662  and  _665
REMARK  257  A    between atoms: _665  and  _666
REMARK  258  A    between atoms: _669  and  _671
REMARK  259  A    between atoms: _671  and  _672
REMARK  260  A    between atoms: _671  and  _674
REMARK  261  A    between atoms: _674  and  _675
REMARK  262  A    between atoms: _678  and  _680
REMARK  263  A    between atoms: _680  and  _681
REMARK  264  A    between atoms: _680  and  _683
REMARK  265  A    between atoms: _683  and  _684
REMARK                            x       y       z     vdW  Elec       q    Type
REMARK                         _______ _______ _______ _____ _____    ______ ____
ROOT
ATOM      1  O   HOH     1       3.474  16.858   8.099  0.00  0.00    +0.000 OA
ENDROOT
TORSDOF 0
REMARK  Name = ../refined-set-2016/1b9j/1b9j_pocket.pdb
REMARK  265 active torsions:
REMARK  status: ('A' for Active; 'I' for Inactive)
REMARK    1  A    between atoms: _1  and  _3
REMARK    2  A    between atoms: _3  and  _4
REMARK    3  A    between atoms: _3  and  _6
REMARK    4  A    between atoms: _6  and  _7
REMARK    5  A    between atoms: _12  and  _14
REMARK    6  A    between atoms: _14  and  _15
REMARK    7  A    between atoms: _17  and  _19
REMARK    8  A    between atoms: _19  and  _20
REMARK    9  A    between atoms: _19  and  _22
REMARK   10  A    between atoms: _22  and  _23
REMARK   11  A    between atoms: _25  and  _27
REMARK   12  A    between atoms: _27  and  _28
REMARK   13  A    between atoms: _27  and  _30
REMARK   14  A    between atoms: _30  and  _31
REMARK   15  A    between atoms: _31  and  _32
REMARK   16  A    between atoms: _37  and  _39
REMARK   17  A    between atoms: _39  and  _40
REMARK   18  A    between atoms: _39  and  _42
REMARK   19  A    between atoms: _42  and  _43
REMARK   20  A    between atoms: _46  and  _48
REMARK   21  A    between atoms: _48  and  _49
REMARK   22  A    between atoms: _48  and  _51
REMARK   23  A    between atoms: _51  and  _52
REMARK   24  A    between atoms: _52  and  _53
REMARK   25  A    between atoms: _56  and  _58
REMARK   26  A    between atoms: _58  and  _59
REMARK   27  A    between atoms: _61  and  _63
REMARK   28  A    between atoms: _63  and  _64
REMARK   29  A    between atoms: _63  and  _66
REMARK   30  A    between atoms: _70  and  _71
REMARK   31  A    between atoms: _76  and  _78
REMARK   32  A    between atoms: _78  and  _79
REMARK   33  A    between atoms: _78  and  _81
REMARK   34  A    between atoms: _81  and  _82
REMARK   35  A    between atoms: _82  and  _83
REMARK   36  A    between atoms: _86  and  _88
REMARK   37  A    between atoms: _88  and  _89
REMARK   38  A    between atoms: _88  and  _91
REMARK   39  A    between atoms: _91  and  _92
REMARK   40  A    between atoms: _94  and  _96
REMARK   41  A    between atoms: _96  and  _97
REMARK   42  A    between atoms: _96  and  _99
REMARK   43  A    between atoms: _99  and  _100
REMARK   44  A    between atoms: _105  and  _107
REMARK   45  A    between atoms: _107  and  _108
REMARK   46  A    between atoms: _107  and  _110
REMARK   47  A    between atoms: _110  and  _111
REMARK   48  A    between atoms: _111  and  _112
REMARK   49  A    between atoms: _112  and  _113
REMARK   50  A    between atoms: _123  and  _124
REMARK   51  A    between atoms: _129  and  _131
REMARK   52  A    between atoms: _131  and  _132
REMARK   53  A    between atoms: _131  and  _134
REMARK   54  A    between atoms: _134  and  _135
REMARK   55  A    between atoms: _140  and  _141
REMARK   56  A    between atoms: _143  and  _145
REMARK   57  A    between atoms: _145  and  _146
REMARK   58  A    between atoms: _145  and  _148
REMARK   59  A    between atoms: _148  and  _149
REMARK   60  A    between atoms: _154  and  _155
REMARK   61  A    between atoms: _157  and  _159
REMARK   62  A    between atoms: _159  and  _160
REMARK   63  A    between atoms: _159  and  _162
REMARK   64  A    between atoms: _165  and  _167
REMARK   65  A    between atoms: _167  and  _168
REMARK   66  A    between atoms: _167  and  _170
REMARK   67  A    between atoms: _170  and  _171
REMARK   68  A    between atoms: _177  and  _178
REMARK   69  A    between atoms: _183  and  _185
REMARK   70  A    between atoms: _185  and  _186
REMARK   71  A    between atoms: _185  and  _188
REMARK   72  A    between atoms: _188  and  _189
REMARK   73  A    between atoms: _191  and  _193
REMARK   74  A    between atoms: _193  and  _194
REMARK   75  A    between atoms: _193  and  _196
REMARK   76  A    between atoms: _196  and  _197
REMARK   77  A    between atoms: _197  and  _198
REMARK   78  A    between atoms: _201  and  _203
REMARK   79  A    between atoms: _203  and  _204
REMARK   80  A    between atoms: _203  and  _206
REMARK   81  A    between atoms: _206  and  _207
REMARK   82  A    between atoms: _212  and  _213
REMARK   83  A    between atoms: _215  and  _217
REMARK   84  A    between atoms: _217  and  _218
REMARK   85  A    between atoms: _217  and  _220
REMARK   86  A    between atoms: _220  and  _221
REMARK   87  A    between atoms: _226  and  _228
REMARK   88  A    between atoms: _228  and  _229
REMARK   89  A    between atoms: _228  and  _231
REMARK   90  A    between atoms: _231  and  _232
REMARK   91  A    between atoms: _237  and  _239
REMARK   92  A    between atoms: _239  and  _240
REMARK   93  A    between atoms: _239  and  _242
REMARK   94  A    between atoms: _242  and  _243
REMARK   95  A    between atoms: _243  and  _244
REMARK   96  A    between atoms: _246  and  _248
REMARK   97  A    between atoms: _248  and  _249
REMARK   98  A    between atoms: _248  and  _251
REMARK   99  A    between atoms: _251  and  _252
REMARK  100  A    between atoms: _257  and  _258
REMARK  101  A    between atoms: _260  and  _262
REMARK  102  A    between atoms: _262  and  _263
REMARK  103  A    between atoms: _262  and  _265
REMARK  104  A    between atoms: _265  and  _266
REMARK  105  A    between atoms: _269  and  _271
REMARK  106  A    between atoms: _271  and  _272
REMARK  107  A    between atoms: _271  and  _274
REMARK  108  A    between atoms: _274  and  _275
REMARK  109  A    between atoms: _275  and  _492
REMARK  110  A    between atoms: _276  and  _278
REMARK  111  A    between atoms: _278  and  _279
REMARK  112  A    between atoms: _278  and  _281
REMARK  113  A    between atoms: _281  and  _282
REMARK  114  A    between atoms: _285  and  _287
REMARK  115  A    between atoms: _287  and  _288
REMARK  116  A    between atoms: _287  and  _290
REMARK  117  A    between atoms: _290  and  _291
REMARK  118  A    between atoms: _296  and  _297
REMARK  119  A    between atoms: _299  and  _301
REMARK  120  A    between atoms: _301  and  _302
REMARK  121  A    between atoms: _301  and  _304
REMARK  122  A    between atoms: _304  and  _305
REMARK  123  A    between atoms: _310  and  _311
REMARK  124  A    between atoms: _313  and  _315
REMARK  125  A    between atoms: _315  and  _316
REMARK  126  A    between atoms: _315  and  _318
REMARK  127  A    between atoms: _318  and  _319
REMARK  128  A    between atoms: _319  and  _320
REMARK  129  A    between atoms: _323  and  _325
REMARK  130  A    between atoms: _325  and  _326
REMARK  131  A    between atoms: _325  and  _328
REMARK  132  A    between atoms: _328  and  _329
REMARK  133  A    between atoms: _334  and  _335
REMARK  134  A    between atoms: _337  and  _339
REMARK  135  A    between atoms: _339  and  _340
REMARK  136  A    between atoms: _339  and  _342
REMARK  137  A    between atoms: _342  and  _343
REMARK  138  A    between atoms: _348  and  _350
REMARK  139  A    between atoms: _350  and  _351
REMARK  140  A    between atoms: _350  and  _353
REMARK  141  A    between atoms: _353  and  _354
REMARK  142  A    between atoms: _357  and  _359
REMARK  143  A    between atoms: _359  and  _360
REMARK  144  A    between atoms: _359  and  _362
REMARK  145  A    between atoms: _362  and  _363
REMARK  146  A    between atoms: _368  and  _370
REMARK  147  A    between atoms: _370  and  _371
REMARK  148  A    between atoms: _370  and  _373
REMARK  149  A    between atoms: _373  and  _374
REMARK  150  A    between atoms: _384  and  _386
REMARK  151  A    between atoms: _386  and  _387
REMARK  152  A    between atoms: _386  and  _389
REMARK  153  A    between atoms: _389  and  _390
REMARK  154  A    between atoms: _396  and  _398
REMARK  155  A    between atoms: _398  and  _399
REMARK  156  A    between atoms: _398  and  _401
REMARK  157  A    between atoms: _401  and  _402
REMARK  158  A    between atoms: _405  and  _407
REMARK  159  A    between atoms: _407  and  _408
REMARK  160  A    between atoms: _407  and  _410
REMARK  161  A    between atoms: _410  and  _411
REMARK  162  A    between atoms: _414  and  _416
REMARK  163  A    between atoms: _416  and  _417
REMARK  164  A    between atoms: _416  and  _419
REMARK  165  A    between atoms: _419  and  _420
REMARK  166  A    between atoms: _420  and  _421
REMARK  167  A    between atoms: _421  and  _422
REMARK  168  A    between atoms: _431  and  _433
REMARK  169  A    between atoms: _433  and  _434
REMARK  170  A    between atoms: _433  and  _436
REMARK  171  A    between atoms: _436  and  _437
REMARK  172  A    between atoms: _442  and  _444
REMARK  173  A    between atoms: _444  and  _445
REMARK  174  A    between atoms: _444  and  _447
REMARK  175  A    between atoms: _447  and  _448
REMARK  176  A    between atoms: _448  and  _449
REMARK  177  A    between atoms: _449  and  _450
REMARK  178  A    between atoms: _459  and  _461
REMARK  179  A    between atoms: _461  and  _462
REMARK  180  A    between atoms: _465  and  _467
REMARK  181  A    between atoms: _467  and  _468
REMARK  182  A    between atoms: _470  and  _472
REMARK  183  A    between atoms: _472  and  _473
REMARK  184  A    between atoms: _472  and  _475
REMARK  185  A    between atoms: _475  and  _476
REMARK  186  A    between atoms: _486  and  _488
REMARK  187  A    between atoms: _488  and  _489
REMARK  188  A    between atoms: _488  and  _491
REMARK  189  A    between atoms: _491  and  _492
REMARK  190  A    between atoms: _493  and  _495
REMARK  191  A    between atoms: _495  and  _496
REMARK  192  A    between atoms: _499  and  _501
REMARK  193  A    between atoms: _501  and  _502
REMARK  194  A    between atoms: _501  and  _504
REMARK  195  A    between atoms: _504  and  _505
REMARK  196  A    between atoms: _508  and  _510
REMARK  197  A    between atoms: _510  and  _511
REMARK  198  A    between atoms: _510  and  _513
REMARK  199  A    between atoms: _513  and  _514
REMARK  200  A    between atoms: _519  and  _520
REMARK  201  A    between atoms: _522  and  _524
REMARK  202  A    between atoms: _524  and  _525
REMARK  203  A    between atoms: _524  and  _527
REMARK  204  A    between atoms: _527  and  _528
REMARK  205  A    between atoms: _530  and  _532
REMARK  206  A    between atoms: _532  and  _533
REMARK  207  A    between atoms: _532  and  _535
REMARK  208  A    between atoms: _535  and  _536
REMARK  209  A    between atoms: _542  and  _544
REMARK  210  A    between atoms: _544  and  _545
REMARK  211  A    between atoms: _544  and  _547
REMARK  212  A    between atoms: _547  and  _548
REMARK  213  A    between atoms: _551  and  _553
REMARK  214  A    between atoms: _553  and  _554
REMARK  215  A    between atoms: _553  and  _556
REMARK  216  A    between atoms: _556  and  _557
REMARK  217  A    between atoms: _559  and  _561
REMARK  218  A    between atoms: _561  and  _562
REMARK  219  A    between atoms: _561  and  _564
REMARK  220  A    between atoms: _564  and  _565
REMARK  221  A    between atoms: _570  and  _572
REMARK  222  A    between atoms: _572  and  _573
REMARK  223  A    between atoms: _572  and  _575
REMARK  224  A    between atoms: _575  and  _576
REMARK  225  A    between atoms: _581  and  _583
REMARK  226  A    between atoms: _583  and  _584
REMARK  227  A    between atoms: _583  and  _586
REMARK  228  A    between atoms: _586  and  _587
REMARK  229  A    between atoms: _590  and  _592
REMARK  230  A    between atoms: _592  and  _593
REMARK  231  A    between atoms: _592  and  _595
REMARK  232  A    between atoms: _595  and  _596
REMARK  233  A    between atoms: _601  and  _602
REMARK  234  A    between atoms: _604  and  _606
REMARK  235  A    between atoms: _606  and  _607
REMARK  236  A    between atoms: _606  and  _609
REMARK  237  A    between atoms: _609  and  _610
REMARK  238  A    between atoms: _615  and  _616
REMARK  239  A    between atoms: _618  and  _620
REMARK  240  A    between atoms: _620  and  _621
REMARK  241  A    between atoms: _620  and  _623
REMARK  242  A    between atoms: _626  and  _628
REMARK  243  A    between atoms: _628  and  _629
REMARK  244  A    between atoms: _628  and  _631
REMARK  245  A    between atoms: _631  and  _632
REMARK  246  A    between atoms: _637  and  _639
REMARK  247  A    between atoms: _639  and  _640
REMARK  248  A    between atoms: _643  and  _645
REMARK  249  A    between atoms: _645  and  _646
REMARK  250  A    between atoms: _645  and  _648
REMARK  251  A    between atoms: _648  and  _649
REMARK  252  A    between atoms: _649  and  _650
REMARK  253  A    between atoms: _650  and  _651
REMARK  254  A    between atoms: _660  and  _662
REMARK  255  A    between atoms: _662  and  _663
REMARK  256  A    between atoms: _662  and  _665
REMARK  257  A    between atoms: _665  and  _666
REMARK  258  A    between atoms: _669  and  _671
REMARK  259  A    between atoms: _671  and  _672
REMARK  260  A    between atoms: _671  and  _674
REMARK  261  A    between atoms: _674  and  _675
REMARK  262  A    between atoms: _678  and  _680
REMARK  263  A    between atoms: _680  and  _681
REMARK  264  A    between atoms: _680  and  _683
REMARK  265  A    between atoms: _683  and  _684
REMARK                            x       y       z     vdW  Elec       q    Type
REMARK                         _______ _______ _______ _____ _____    ______ ____
ROOT
ATOM      1  O   HOH     1      -4.077  22.504  15.111  0.00  0.00    +0.000 OA
ENDROOT
TORSDOF 0
REMARK  Name = ../refined-set-2016/1b9j/1b9j_pocket.pdb
REMARK  265 active torsions:
REMARK  status: ('A' for Active; 'I' for Inactive)
REMARK    1  A    between atoms: _1  and  _3
REMARK    2  A    between atoms: _3  and  _4
REMARK    3  A    between atoms: _3  and  _6
REMARK    4  A    between atoms: _6  and  _7
REMARK    5  A    between atoms: _12  and  _14
REMARK    6  A    between atoms: _14  and  _15
REMARK    7  A    between atoms: _17  and  _19
REMARK    8  A    between atoms: _19  and  _20
REMARK    9  A    between atoms: _19  and  _22
REMARK   10  A    between atoms: _22  and  _23
REMARK   11  A    between atoms: _25  and  _27
REMARK   12  A    between atoms: _27  and  _28
REMARK   13  A    between atoms: _27  and  _30
REMARK   14  A    between atoms: _30  and  _31
REMARK   15  A    between atoms: _31  and  _32
REMARK   16  A    between atoms: _37  and  _39
REMARK   17  A    between atoms: _39  and  _40
REMARK   18  A    between atoms: _39  and  _42
REMARK   19  A    between atoms: _42  and  _43
REMARK   20  A    between atoms: _46  and  _48
REMARK   21  A    between atoms: _48  and  _49
REMARK   22  A    between atoms: _48  and  _51
REMARK   23  A    between atoms: _51  and  _52
REMARK   24  A    between atoms: _52  and  _53
REMARK   25  A    between atoms: _56  and  _58
REMARK   26  A    between atoms: _58  and  _59
REMARK   27  A    between atoms: _61  and  _63
REMARK   28  A    between atoms: _63  and  _64
REMARK   29  A    between atoms: _63  and  _66
REMARK   30  A    between atoms: _70  and  _71
REMARK   31  A    between atoms: _76  and  _78
REMARK   32  A    between atoms: _78  and  _79
REMARK   33  A    between atoms: _78  and  _81
REMARK   34  A    between atoms: _81  and  _82
REMARK   35  A    between atoms: _82  and  _83
REMARK   36  A    between atoms: _86  and  _88
REMARK   37  A    between atoms: _88  and  _89
REMARK   38  A    between atoms: _88  and  _91
REMARK   39  A    between atoms: _91  and  _92
REMARK   40  A    between atoms: _94  and  _96
REMARK   41  A    between atoms: _96  and  _97
REMARK   42  A    between atoms: _96  and  _99
REMARK   43  A    between atoms: _99  and  _100
REMARK   44  A    between atoms: _105  and  _107
REMARK   45  A    between atoms: _107  and  _108
REMARK   46  A    between atoms: _107  and  _110
REMARK   47  A    between atoms: _110  and  _111
REMARK   48  A    between atoms: _111  and  _112
REMARK   49  A    between atoms: _112  and  _113
REMARK   50  A    between atoms: _123  and  _124
REMARK   51  A    between atoms: _129  and  _131
REMARK   52  A    between atoms: _131  and  _132
REMARK   53  A    between atoms: _131  and  _134
REMARK   54  A    between atoms: _134  and  _135
REMARK   55  A    between atoms: _140  and  _141
REMARK   56  A    between atoms: _143  and  _145
REMARK   57  A    between atoms: _145  and  _146
REMARK   58  A    between atoms: _145  and  _148
REMARK   59  A    between atoms: _148  and  _149
REMARK   60  A    between atoms: _154  and  _155
REMARK   61  A    between atoms: _157  and  _159
REMARK   62  A    between atoms: _159  and  _160
REMARK   63  A    between atoms: _159  and  _162
REMARK   64  A    between atoms: _165  and  _167
REMARK   65  A    between atoms: _167  and  _168
REMARK   66  A    between atoms: _167  and  _170
REMARK   67  A    between atoms: _170  and  _171
REMARK   68  A    between atoms: _177  and  _178
REMARK   69  A    between atoms: _183  and  _185
REMARK   70  A    between atoms: _185  and  _186
REMARK   71  A    between atoms: _185  and  _188
REMARK   72  A    between atoms: _188  and  _189
REMARK   73  A    between atoms: _191  and  _193
REMARK   74  A    between atoms: _193  and  _194
REMARK   75  A    between atoms: _193  and  _196
REMARK   76  A    between atoms: _196  and  _197
REMARK   77  A    between atoms: _197  and  _198
REMARK   78  A    between atoms: _201  and  _203
REMARK   79  A    between atoms: _203  and  _204
REMARK   80  A    between atoms: _203  and  _206
REMARK   81  A    between atoms: _206  and  _207
REMARK   82  A    between atoms: _212  and  _213
REMARK   83  A    between atoms: _215  and  _217
REMARK   84  A    between atoms: _217  and  _218
REMARK   85  A    between atoms: _217  and  _220
REMARK   86  A    between atoms: _220  and  _221
REMARK   87  A    between atoms: _226  and  _228
REMARK   88  A    between atoms: _228  and  _229
REMARK   89  A    between atoms: _228  and  _231
REMARK   90  A    between atoms: _231  and  _232
REMARK   91  A    between atoms: _237  and  _239
REMARK   92  A    between atoms: _239  and  _240
REMARK   93  A    between atoms: _239  and  _242
REMARK   94  A    between atoms: _242  and  _243
REMARK   95  A    between atoms: _243  and  _244
REMARK   96  A    between atoms: _246  and  _248
REMARK   97  A    between atoms: _248  and  _249
REMARK   98  A    between atoms: _248  and  _251
REMARK   99  A    between atoms: _251  and  _252
REMARK  100  A    between atoms: _257  and  _258
REMARK  101  A    between atoms: _260  and  _262
REMARK  102  A    between atoms: _262  and  _263
REMARK  103  A    between atoms: _262  and  _265
REMARK  104  A    between atoms: _265  and  _266
REMARK  105  A    between atoms: _269  and  _271
REMARK  106  A    between atoms: _271  and  _272
REMARK  107  A    between atoms: _271  and  _274
REMARK  108  A    between atoms: _274  and  _275
REMARK  109  A    between atoms: _275  and  _492
REMARK  110  A    between atoms: _276  and  _278
REMARK  111  A    between atoms: _278  and  _279
REMARK  112  A    between atoms: _278  and  _281
REMARK  113  A    between atoms: _281  and  _282
REMARK  114  A    between atoms: _285  and  _287
REMARK  115  A    between atoms: _287  and  _288
REMARK  116  A    between atoms: _287  and  _290
REMARK  117  A    between atoms: _290  and  _291
REMARK  118  A    between atoms: _296  and  _297
REMARK  119  A    between atoms: _299  and  _301
REMARK  120  A    between atoms: _301  and  _302
REMARK  121  A    between atoms: _301  and  _304
REMARK  122  A    between atoms: _304  and  _305
REMARK  123  A    between atoms: _310  and  _311
REMARK  124  A    between atoms: _313  and  _315
REMARK  125  A    between atoms: _315  and  _316
REMARK  126  A    between atoms: _315  and  _318
REMARK  127  A    between atoms: _318  and  _319
REMARK  128  A    between atoms: _319  and  _320
REMARK  129  A    between atoms: _323  and  _325
REMARK  130  A    between atoms: _325  and  _326
REMARK  131  A    between atoms: _325  and  _328
REMARK  132  A    between atoms: _328  and  _329
REMARK  133  A    between atoms: _334  and  _335
REMARK  134  A    between atoms: _337  and  _339
REMARK  135  A    between atoms: _339  and  _340
REMARK  136  A    between atoms: _339  and  _342
REMARK  137  A    between atoms: _342  and  _343
REMARK  138  A    between atoms: _348  and  _350
REMARK  139  A    between atoms: _350  and  _351
REMARK  140  A    between atoms: _350  and  _353
REMARK  141  A    between atoms: _353  and  _354
REMARK  142  A    between atoms: _357  and  _359
REMARK  143  A    between atoms: _359  and  _360
REMARK  144  A    between atoms: _359  and  _362
REMARK  145  A    between atoms: _362  and  _363
REMARK  146  A    between atoms: _368  and  _370
REMARK  147  A    between atoms: _370  and  _371
REMARK  148  A    between atoms: _370  and  _373
REMARK  149  A    between atoms: _373  and  _374
REMARK  150  A    between atoms: _384  and  _386
REMARK  151  A    between atoms: _386  and  _387
REMARK  152  A    between atoms: _386  and  _389
REMARK  153  A    between atoms: _389  and  _390
REMARK  154  A    between atoms: _396  and  _398
REMARK  155  A    between atoms: _398  and  _399
REMARK  156  A    between atoms: _398  and  _401
REMARK  157  A    between atoms: _401  and  _402
REMARK  158  A    between atoms: _405  and  _407
REMARK  159  A    between atoms: _407  and  _408
REMARK  160  A    between atoms: _407  and  _410
REMARK  161  A    between atoms: _410  and  _411
REMARK  162  A    between atoms: _414  and  _416
REMARK  163  A    between atoms: _416  and  _417
REMARK  164  A    between atoms: _416  and  _419
REMARK  165  A    between atoms: _419  and  _420
REMARK  166  A    between atoms: _420  and  _421
REMARK  167  A    between atoms: _421  and  _422
REMARK  168  A    between atoms: _431  and  _433
REMARK  169  A    between atoms: _433  and  _434
REMARK  170  A    between atoms: _433  and  _436
REMARK  171  A    between atoms: _436  and  _437
REMARK  172  A    between atoms: _442  and  _444
REMARK  173  A    between atoms: _444  and  _445
REMARK  174  A    between atoms: _444  and  _447
REMARK  175  A    between atoms: _447  and  _448
REMARK  176  A    between atoms: _448  and  _449
REMARK  177  A    between atoms: _449  and  _450
REMARK  178  A    between atoms: _459  and  _461
REMARK  179  A    between atoms: _461  and  _462
REMARK  180  A    between atoms: _465  and  _467
REMARK  181  A    between atoms: _467  and  _468
REMARK  182  A    between atoms: _470  and  _472
REMARK  183  A    between atoms: _472  and  _473
REMARK  184  A    between atoms: _472  and  _475
REMARK  185  A    between atoms: _475  and  _476
REMARK  186  A    between atoms: _486  and  _488
REMARK  187  A    between atoms: _488  and  _489
REMARK  188  A    between atoms: _488  and  _491
REMARK  189  A    between atoms: _491  and  _492
REMARK  190  A    between atoms: _493  and  _495
REMARK  191  A    between atoms: _495  and  _496
REMARK  192  A    between atoms: _499  and  _501
REMARK  193  A    between atoms: _501  and  _502
REMARK  194  A    between atoms: _501  and  _504
REMARK  195  A    between atoms: _504  and  _505
REMARK  196  A    between atoms: _508  and  _510
REMARK  197  A    between atoms: _510  and  _511
REMARK  198  A    between atoms: _510  and  _513
REMARK  199  A    between atoms: _513  and  _514
REMARK  200  A    between atoms: _519  and  _520
REMARK  201  A    between atoms: _522  and  _524
REMARK  202  A    between atoms: _524  and  _525
REMARK  203  A    between atoms: _524  and  _527
REMARK  204  A    between atoms: _527  and  _528
REMARK  205  A    between atoms: _530  and  _532
REMARK  206  A    between atoms: _532  and  _533
REMARK  207  A    between atoms: _532  and  _535
REMARK  208  A    between atoms: _535  and  _536
REMARK  209  A    between atoms: _542  and  _544
REMARK  210  A    between atoms: _544  and  _545
REMARK  211  A    between atoms: _544  and  _547
REMARK  212  A    between atoms: _547  and  _548
REMARK  213  A    between atoms: _551  and  _553
REMARK  214  A    between atoms: _553  and  _554
REMARK  215  A    between atoms: _553  and  _556
REMARK  216  A    between atoms: _556  and  _557
REMARK  217  A    between atoms: _559  and  _561
REMARK  218  A    between atoms: _561  and  _562
REMARK  219  A    between atoms: _561  and  _564
REMARK  220  A    between atoms: _564  and  _565
REMARK  221  A    between atoms: _570  and  _572
REMARK  222  A    between atoms: _572  and  _573
REMARK  223  A    between atoms: _572  and  _575
REMARK  224  A    between atoms: _575  and  _576
REMARK  225  A    between atoms: _581  and  _583
REMARK  226  A    between atoms: _583  and  _584
REMARK  227  A    between atoms: _583  and  _586
REMARK  228  A    between atoms: _586  and  _587
REMARK  229  A    between atoms: _590  and  _592
REMARK  230  A    between atoms: _592  and  _593
REMARK  231  A    between atoms: _592  and  _595
REMARK  232  A    between atoms: _595  and  _596
REMARK  233  A    between atoms: _601  and  _602
REMARK  234  A    between atoms: _604  and  _606
REMARK  235  A    between atoms: _606  and  _607
REMARK  236  A    between atoms: _606  and  _609
REMARK  237  A    between atoms: _609  and  _610
REMARK  238  A    between atoms: _615  and  _616
REMARK  239  A    between atoms: _618  and  _620
REMARK  240  A    between atoms: _620  and  _621
REMARK  241  A    between atoms: _620  and  _623
REMARK  242  A    between atoms: _626  and  _628
REMARK  243  A    between atoms: _628  and  _629
REMARK  244  A    between atoms: _628  and  _631
REMARK  245  A    between atoms: _631  and  _632
REMARK  246  A    between atoms: _637  and  _639
REMARK  247  A    between atoms: _639  and  _640
REMARK  248  A    between atoms: _643  and  _645
REMARK  249  A    between atoms: _645  and  _646
REMARK  250  A    between atoms: _645  and  _648
REMARK  251  A    between atoms: _648  and  _649
REMARK  252  A    between atoms: _649  and  _650
REMARK  253  A    between atoms: _650  and  _651
REMARK  254  A    between atoms: _660  and  _662
REMARK  255  A    between atoms: _662  and  _663
REMARK  256  A    between atoms: _662  and  _665
REMARK  257  A    between atoms: _665  and  _666
REMARK  258  A    between atoms: _669  and  _671
REMARK  259  A    between atoms: _671  and  _672
REMARK  260  A    between atoms: _671  and  _674
REMARK  261  A    between atoms: _674  and  _675
REMARK  262  A    between atoms: _678  and  _680
REMARK  263  A    between atoms: _680  and  _681
REMARK  264  A    between atoms: _680  and  _683
REMARK  265  A    between atoms: _683  and  _684
REMARK                            x       y       z     vdW  Elec       q    Type
REMARK                         _______ _______ _______ _____ _____    ______ ____
ROOT
ATOM      1  O   HOH     1      -1.987  16.866   7.576  0.00  0.00    +0.000 OA
ENDROOT
TORSDOF 0
REMARK  Name = ../refined-set-2016/1b9j/1b9j_pocket.pdb
REMARK  265 active torsions:
REMARK  status: ('A' for Active; 'I' for Inactive)
REMARK    1  A    between atoms: _1  and  _3
REMARK    2  A    between atoms: _3  and  _4
REMARK    3  A    between atoms: _3  and  _6
REMARK    4  A    between atoms: _6  and  _7
REMARK    5  A    between atoms: _12  and  _14
REMARK    6  A    between atoms: _14  and  _15
REMARK    7  A    between atoms: _17  and  _19
REMARK    8  A    between atoms: _19  and  _20
REMARK    9  A    between atoms: _19  and  _22
REMARK   10  A    between atoms: _22  and  _23
REMARK   11  A    between atoms: _25  and  _27
REMARK   12  A    between atoms: _27  and  _28
REMARK   13  A    between atoms: _27  and  _30
REMARK   14  A    between atoms: _30  and  _31
REMARK   15  A    between atoms: _31  and  _32
REMARK   16  A    between atoms: _37  and  _39
REMARK   17  A    between atoms: _39  and  _40
REMARK   18  A    between atoms: _39  and  _42
REMARK   19  A    between atoms: _42  and  _43
REMARK   20  A    between atoms: _46  and  _48
REMARK   21  A    between atoms: _48  and  _49
REMARK   22  A    between atoms: _48  and  _51
REMARK   23  A    between atoms: _51  and  _52
REMARK   24  A    between atoms: _52  and  _53
REMARK   25  A    between atoms: _56  and  _58
REMARK   26  A    between atoms: _58  and  _59
REMARK   27  A    between atoms: _61  and  _63
REMARK   28  A    between atoms: _63  and  _64
REMARK   29  A    between atoms: _63  and  _66
REMARK   30  A    between atoms: _70  and  _71
REMARK   31  A    between atoms: _76  and  _78
REMARK   32  A    between atoms: _78  and  _79
REMARK   33  A    between atoms: _78  and  _81
REMARK   34  A    between atoms: _81  and  _82
REMARK   35  A    between atoms: _82  and  _83
REMARK   36  A    between atoms: _86  and  _88
REMARK   37  A    between atoms: _88  and  _89
REMARK   38  A    between atoms: _88  and  _91
REMARK   39  A    between atoms: _91  and  _92
REMARK   40  A    between atoms: _94  and  _96
REMARK   41  A    between atoms: _96  and  _97
REMARK   42  A    between atoms: _96  and  _99
REMARK   43  A    between atoms: _99  and  _100
REMARK   44  A    between atoms: _105  and  _107
REMARK   45  A    between atoms: _107  and  _108
REMARK   46  A    between atoms: _107  and  _110
REMARK   47  A    between atoms: _110  and  _111
REMARK   48  A    between atoms: _111  and  _112
REMARK   49  A    between atoms: _112  and  _113
REMARK   50  A    between atoms: _123  and  _124
REMARK   51  A    between atoms: _129  and  _131
REMARK   52  A    between atoms: _131  and  _132
REMARK   53  A    between atoms: _131  and  _134
REMARK   54  A    between atoms: _134  and  _135
REMARK   55  A    between atoms: _140  and  _141
REMARK   56  A    between atoms: _143  and  _145
REMARK   57  A    between atoms: _145  and  _146
REMARK   58  A    between atoms: _145  and  _148
REMARK   59  A    between atoms: _148  and  _149
REMARK   60  A    between atoms: _154  and  _155
REMARK   61  A    between atoms: _157  and  _159
REMARK   62  A    between atoms: _159  and  _160
REMARK   63  A    between atoms: _159  and  _162
REMARK   64  A    between atoms: _165  and  _167
REMARK   65  A    between atoms: _167  and  _168
REMARK   66  A    between atoms: _167  and  _170
REMARK   67  A    between atoms: _170  and  _171
REMARK   68  A    between atoms: _177  and  _178
REMARK   69  A    between atoms: _183  and  _185
REMARK   70  A    between atoms: _185  and  _186
REMARK   71  A    between atoms: _185  and  _188
REMARK   72  A    between atoms: _188  and  _189
REMARK   73  A    between atoms: _191  and  _193
REMARK   74  A    between atoms: _193  and  _194
REMARK   75  A    between atoms: _193  and  _196
REMARK   76  A    between atoms: _196  and  _197
REMARK   77  A    between atoms: _197  and  _198
REMARK   78  A    between atoms: _201  and  _203
REMARK   79  A    between atoms: _203  and  _204
REMARK   80  A    between atoms: _203  and  _206
REMARK   81  A    between atoms: _206  and  _207
REMARK   82  A    between atoms: _212  and  _213
REMARK   83  A    between atoms: _215  and  _217
REMARK   84  A    between atoms: _217  and  _218
REMARK   85  A    between atoms: _217  and  _220
REMARK   86  A    between atoms: _220  and  _221
REMARK   87  A    between atoms: _226  and  _228
REMARK   88  A    between atoms: _228  and  _229
REMARK   89  A    between atoms: _228  and  _231
REMARK   90  A    between atoms: _231  and  _232
REMARK   91  A    between atoms: _237  and  _239
REMARK   92  A    between atoms: _239  and  _240
REMARK   93  A    between atoms: _239  and  _242
REMARK   94  A    between atoms: _242  and  _243
REMARK   95  A    between atoms: _243  and  _244
REMARK   96  A    between atoms: _246  and  _248
REMARK   97  A    between atoms: _248  and  _249
REMARK   98  A    between atoms: _248  and  _251
REMARK   99  A    between atoms: _251  and  _252
REMARK  100  A    between atoms: _257  and  _258
REMARK  101  A    between atoms: _260  and  _262
REMARK  102  A    between atoms: _262  and  _263
REMARK  103  A    between atoms: _262  and  _265
REMARK  104  A    between atoms: _265  and  _266
REMARK  105  A    between atoms: _269  and  _271
REMARK  106  A    between atoms: _271  and  _272
REMARK  107  A    between atoms: _271  and  _274
REMARK  108  A    between atoms: _274  and  _275
REMARK  109  A    between atoms: _275  and  _492
REMARK  110  A    between atoms: _276  and  _278
REMARK  111  A    between atoms: _278  and  _279
REMARK  112  A    between atoms: _278  and  _281
REMARK  113  A    between atoms: _281  and  _282
REMARK  114  A    between atoms: _285  and  _287
REMARK  115  A    between atoms: _287  and  _288
REMARK  116  A    between atoms: _287  and  _290
REMARK  117  A    between atoms: _290  and  _291
REMARK  118  A    between atoms: _296  and  _297
REMARK  119  A    between atoms: _299  and  _301
REMARK  120  A    between atoms: _301  and  _302
REMARK  121  A    between atoms: _301  and  _304
REMARK  122  A    between atoms: _304  and  _305
REMARK  123  A    between atoms: _310  and  _311
REMARK  124  A    between atoms: _313  and  _315
REMARK  125  A    between atoms: _315  and  _316
REMARK  126  A    between atoms: _315  and  _318
REMARK  127  A    between atoms: _318  and  _319
REMARK  128  A    between atoms: _319  and  _320
REMARK  129  A    between atoms: _323  and  _325
REMARK  130  A    between atoms: _325  and  _326
REMARK  131  A    between atoms: _325  and  _328
REMARK  132  A    between atoms: _328  and  _329
REMARK  133  A    between atoms: _334  and  _335
REMARK  134  A    between atoms: _337  and  _339
REMARK  135  A    between atoms: _339  and  _340
REMARK  136  A    between atoms: _339  and  _342
REMARK  137  A    between atoms: _342  and  _343
REMARK  138  A    between atoms: _348  and  _350
REMARK  139  A    between atoms: _350  and  _351
REMARK  140  A    between atoms: _350  and  _353
REMARK  141  A    between atoms: _353  and  _354
REMARK  142  A    between atoms: _357  and  _359
REMARK  143  A    between atoms: _359  and  _360
REMARK  144  A    between atoms: _359  and  _362
REMARK  145  A    between atoms: _362  and  _363
REMARK  146  A    between atoms: _368  and  _370
REMARK  147  A    between atoms: _370  and  _371
REMARK  148  A    between atoms: _370  and  _373
REMARK  149  A    between atoms: _373  and  _374
REMARK  150  A    between atoms: _384  and  _386
REMARK  151  A    between atoms: _386  and  _387
REMARK  152  A    between atoms: _386  and  _389
REMARK  153  A    between atoms: _389  and  _390
REMARK  154  A    between atoms: _396  and  _398
REMARK  155  A    between atoms: _398  and  _399
REMARK  156  A    between atoms: _398  and  _401
REMARK  157  A    between atoms: _401  and  _402
REMARK  158  A    between atoms: _405  and  _407
REMARK  159  A    between atoms: _407  and  _408
REMARK  160  A    between atoms: _407  and  _410
REMARK  161  A    between atoms: _410  and  _411
REMARK  162  A    between atoms: _414  and  _416
REMARK  163  A    between atoms: _416  and  _417
REMARK  164  A    between atoms: _416  and  _419
REMARK  165  A    between atoms: _419  and  _420
REMARK  166  A    between atoms: _420  and  _421
REMARK  167  A    between atoms: _421  and  _422
REMARK  168  A    between atoms: _431  and  _433
REMARK  169  A    between atoms: _433  and  _434
REMARK  170  A    between atoms: _433  and  _436
REMARK  171  A    between atoms: _436  and  _437
REMARK  172  A    between atoms: _442  and  _444
REMARK  173  A    between atoms: _444  and  _445
REMARK  174  A    between atoms: _444  and  _447
REMARK  175  A    between atoms: _447  and  _448
REMARK  176  A    between atoms: _448  and  _449
REMARK  177  A    between atoms: _449  and  _450
REMARK  178  A    between atoms: _459  and  _461
REMARK  179  A    between atoms: _461  and  _462
REMARK  180  A    between atoms: _465  and  _467
REMARK  181  A    between atoms: _467  and  _468
REMARK  182  A    between atoms: _470  and  _472
REMARK  183  A    between atoms: _472  and  _473
REMARK  184  A    between atoms: _472  and  _475
REMARK  185  A    between atoms: _475  and  _476
REMARK  186  A    between atoms: _486  and  _488
REMARK  187  A    between atoms: _488  and  _489
REMARK  188  A    between atoms: _488  and  _491
REMARK  189  A    between atoms: _491  and  _492
REMARK  190  A    between atoms: _493  and  _495
REMARK  191  A    between atoms: _495  and  _496
REMARK  192  A    between atoms: _499  and  _501
REMARK  193  A    between atoms: _501  and  _502
REMARK  194  A    between atoms: _501  and  _504
REMARK  195  A    between atoms: _504  and  _505
REMARK  196  A    between atoms: _508  and  _510
REMARK  197  A    between atoms: _510  and  _511
REMARK  198  A    between atoms: _510  and  _513
REMARK  199  A    between atoms: _513  and  _514
REMARK  200  A    between atoms: _519  and  _520
REMARK  201  A    between atoms: _522  and  _524
REMARK  202  A    between atoms: _524  and  _525
REMARK  203  A    between atoms: _524  and  _527
REMARK  204  A    between atoms: _527  and  _528
REMARK  205  A    between atoms: _530  and  _532
REMARK  206  A    between atoms: _532  and  _533
REMARK  207  A    between atoms: _532  and  _535
REMARK  208  A    between atoms: _535  and  _536
REMARK  209  A    between atoms: _542  and  _544
REMARK  210  A    between atoms: _544  and  _545
REMARK  211  A    between atoms: _544  and  _547
REMARK  212  A    between atoms: _547  and  _548
REMARK  213  A    between atoms: _551  and  _553
REMARK  214  A    between atoms: _553  and  _554
REMARK  215  A    between atoms: _553  and  _556
REMARK  216  A    between atoms: _556  and  _557
REMARK  217  A    between atoms: _559  and  _561
REMARK  218  A    between atoms: _561  and  _562
REMARK  219  A    between atoms: _561  and  _564
REMARK  220  A    between atoms: _564  and  _565
REMARK  221  A    between atoms: _570  and  _572
REMARK  222  A    between atoms: _572  and  _573
REMARK  223  A    between atoms: _572  and  _575
REMARK  224  A    between atoms: _575  and  _576
REMARK  225  A    between atoms: _581  and  _583
REMARK  226  A    between atoms: _583  and  _584
REMARK  227  A    between atoms: _583  and  _586
REMARK  228  A    between atoms: _586  and  _587
REMARK  229  A    between atoms: _590  and  _592
REMARK  230  A    between atoms: _592  and  _593
REMARK  231  A    between atoms: _592  and  _595
REMARK  232  A    between atoms: _595  and  _596
REMARK  233  A    between atoms: _601  and  _602
REMARK  234  A    between atoms: _604  and  _606
REMARK  235  A    between atoms: _606  and  _607
REMARK  236  A    between atoms: _606  and  _609
REMARK  237  A    between atoms: _609  and  _610
REMARK  238  A    between atoms: _615  and  _616
REMARK  239  A    between atoms: _618  and  _620
REMARK  240  A    between atoms: _620  and  _621
REMARK  241  A    between atoms: _620  and  _623
REMARK  242  A    between atoms: _626  and  _628
REMARK  243  A    between atoms: _628  and  _629
REMARK  244  A    between atoms: _628  and  _631
REMARK  245  A    between atoms: _631  and  _632
REMARK  246  A    between atoms: _637  and  _639
REMARK  247  A    between atoms: _639  and  _640
REMARK  248  A    between atoms: _643  and  _645
REMARK  249  A    between atoms: _645  and  _646
REMARK  250  A    between atoms: _645  and  _648
REMARK  251  A    between atoms: _648  and  _649
REMARK  252  A    between atoms: _649  and  _650
REMARK  253  A    between atoms: _650  and  _651
REMARK  254  A    between atoms: _660  and  _662
REMARK  255  A    between atoms: _662  and  _663
REMARK  256  A    between atoms: _662  and  _665
REMARK  257  A    between atoms: _665  and  _666
REMARK  258  A    between atoms: _669  and  _671
REMARK  259  A    between atoms: _671  and  _672
REMARK  260  A    between atoms: _671  and  _674
REMARK  261  A    between atoms: _674  and  _675
REMARK  262  A    between atoms: _678  and  _680
REMARK  263  A    between atoms: _680  and  _681
REMARK  264  A    between atoms: _680  and  _683
REMARK  265  A    between atoms: _683  and  _684
REMARK                            x       y       z     vdW  Elec       q    Type
REMARK                         _______ _______ _______ _____ _____    ______ ____
ROOT
ATOM      1  O   HOH     1       3.496  20.091  20.759  0.00  0.00    +0.000 OA
ENDROOT
TORSDOF 0
REMARK  Name = ../refined-set-2016/1b9j/1b9j_pocket.pdb
REMARK  265 active torsions:
REMARK  status: ('A' for Active; 'I' for Inactive)
REMARK    1  A    between atoms: _1  and  _3
REMARK    2  A    between atoms: _3  and  _4
REMARK    3  A    between atoms: _3  and  _6
REMARK    4  A    between atoms: _6  and  _7
REMARK    5  A    between atoms: _12  and  _14
REMARK    6  A    between atoms: _14  and  _15
REMARK    7  A    between atoms: _17  and  _19
REMARK    8  A    between atoms: _19  and  _20
REMARK    9  A    between atoms: _19  and  _22
REMARK   10  A    between atoms: _22  and  _23
REMARK   11  A    between atoms: _25  and  _27
REMARK   12  A    between atoms: _27  and  _28
REMARK   13  A    between atoms: _27  and  _30
REMARK   14  A    between atoms: _30  and  _31
REMARK   15  A    between atoms: _31  and  _32
REMARK   16  A    between atoms: _37  and  _39
REMARK   17  A    between atoms: _39  and  _40
REMARK   18  A    between atoms: _39  and  _42
REMARK   19  A    between atoms: _42  and  _43
REMARK   20  A    between atoms: _46  and  _48
REMARK   21  A    between atoms: _48  and  _49
REMARK   22  A    between atoms: _48  and  _51
REMARK   23  A    between atoms: _51  and  _52
REMARK   24  A    between atoms: _52  and  _53
REMARK   25  A    between atoms: _56  and  _58
REMARK   26  A    between atoms: _58  and  _59
REMARK   27  A    between atoms: _61  and  _63
REMARK   28  A    between atoms: _63  and  _64
REMARK   29  A    between atoms: _63  and  _66
REMARK   30  A    between atoms: _70  and  _71
REMARK   31  A    between atoms: _76  and  _78
REMARK   32  A    between atoms: _78  and  _79
REMARK   33  A    between atoms: _78  and  _81
REMARK   34  A    between atoms: _81  and  _82
REMARK   35  A    between atoms: _82  and  _83
REMARK   36  A    between atoms: _86  and  _88
REMARK   37  A    between atoms: _88  and  _89
REMARK   38  A    between atoms: _88  and  _91
REMARK   39  A    between atoms: _91  and  _92
REMARK   40  A    between atoms: _94  and  _96
REMARK   41  A    between atoms: _96  and  _97
REMARK   42  A    between atoms: _96  and  _99
REMARK   43  A    between atoms: _99  and  _100
REMARK   44  A    between atoms: _105  and  _107
REMARK   45  A    between atoms: _107  and  _108
REMARK   46  A    between atoms: _107  and  _110
REMARK   47  A    between atoms: _110  and  _111
REMARK   48  A    between atoms: _111  and  _112
REMARK   49  A    between atoms: _112  and  _113
REMARK   50  A    between atoms: _123  and  _124
REMARK   51  A    between atoms: _129  and  _131
REMARK   52  A    between atoms: _131  and  _132
REMARK   53  A    between atoms: _131  and  _134
REMARK   54  A    between atoms: _134  and  _135
REMARK   55  A    between atoms: _140  and  _141
REMARK   56  A    between atoms: _143  and  _145
REMARK   57  A    between atoms: _145  and  _146
REMARK   58  A    between atoms: _145  and  _148
REMARK   59  A    between atoms: _148  and  _149
REMARK   60  A    between atoms: _154  and  _155
REMARK   61  A    between atoms: _157  and  _159
REMARK   62  A    between atoms: _159  and  _160
REMARK   63  A    between atoms: _159  and  _162
REMARK   64  A    between atoms: _165  and  _167
REMARK   65  A    between atoms: _167  and  _168
REMARK   66  A    between atoms: _167  and  _170
REMARK   67  A    between atoms: _170  and  _171
REMARK   68  A    between atoms: _177  and  _178
REMARK   69  A    between atoms: _183  and  _185
REMARK   70  A    between atoms: _185  and  _186
REMARK   71  A    between atoms: _185  and  _188
REMARK   72  A    between atoms: _188  and  _189
REMARK   73  A    between atoms: _191  and  _193
REMARK   74  A    between atoms: _193  and  _194
REMARK   75  A    between atoms: _193  and  _196
REMARK   76  A    between atoms: _196  and  _197
REMARK   77  A    between atoms: _197  and  _198
REMARK   78  A    between atoms: _201  and  _203
REMARK   79  A    between atoms: _203  and  _204
REMARK   80  A    between atoms: _203  and  _206
REMARK   81  A    between atoms: _206  and  _207
REMARK   82  A    between atoms: _212  and  _213
REMARK   83  A    between atoms: _215  and  _217
REMARK   84  A    between atoms: _217  and  _218
REMARK   85  A    between atoms: _217  and  _220
REMARK   86  A    between atoms: _220  and  _221
REMARK   87  A    between atoms: _226  and  _228
REMARK   88  A    between atoms: _228  and  _229
REMARK   89  A    between atoms: _228  and  _231
REMARK   90  A    between atoms: _231  and  _232
REMARK   91  A    between atoms: _237  and  _239
REMARK   92  A    between atoms: _239  and  _240
REMARK   93  A    between atoms: _239  and  _242
REMARK   94  A    between atoms: _242  and  _243
REMARK   95  A    between atoms: _243  and  _244
REMARK   96  A    between atoms: _246  and  _248
REMARK   97  A    between atoms: _248  and  _249
REMARK   98  A    between atoms: _248  and  _251
REMARK   99  A    between atoms: _251  and  _252
REMARK  100  A    between atoms: _257  and  _258
REMARK  101  A    between atoms: _260  and  _262
REMARK  102  A    between atoms: _262  and  _263
REMARK  103  A    between atoms: _262  and  _265
REMARK  104  A    between atoms: _265  and  _266
REMARK  105  A    between atoms: _269  and  _271
REMARK  106  A    between atoms: _271  and  _272
REMARK  107  A    between atoms: _271  and  _274
REMARK  108  A    between atoms: _274  and  _275
REMARK  109  A    between atoms: _275  and  _492
REMARK  110  A    between atoms: _276  and  _278
REMARK  111  A    between atoms: _278  and  _279
REMARK  112  A    between atoms: _278  and  _281
REMARK  113  A    between atoms: _281  and  _282
REMARK  114  A    between atoms: _285  and  _287
REMARK  115  A    between atoms: _287  and  _288
REMARK  116  A    between atoms: _287  and  _290
REMARK  117  A    between atoms: _290  and  _291
REMARK  118  A    between atoms: _296  and  _297
REMARK  119  A    between atoms: _299  and  _301
REMARK  120  A    between atoms: _301  and  _302
REMARK  121  A    between atoms: _301  and  _304
REMARK  122  A    between atoms: _304  and  _305
REMARK  123  A    between atoms: _310  and  _311
REMARK  124  A    between atoms: _313  and  _315
REMARK  125  A    between atoms: _315  and  _316
REMARK  126  A    between atoms: _315  and  _318
REMARK  127  A    between atoms: _318  and  _319
REMARK  128  A    between atoms: _319  and  _320
REMARK  129  A    between atoms: _323  and  _325
REMARK  130  A    between atoms: _325  and  _326
REMARK  131  A    between atoms: _325  and  _328
REMARK  132  A    between atoms: _328  and  _329
REMARK  133  A    between atoms: _334  and  _335
REMARK  134  A    between atoms: _337  and  _339
REMARK  135  A    between atoms: _339  and  _340
REMARK  136  A    between atoms: _339  and  _342
REMARK  137  A    between atoms: _342  and  _343
REMARK  138  A    between atoms: _348  and  _350
REMARK  139  A    between atoms: _350  and  _351
REMARK  140  A    between atoms: _350  and  _353
REMARK  141  A    between atoms: _353  and  _354
REMARK  142  A    between atoms: _357  and  _359
REMARK  143  A    between atoms: _359  and  _360
REMARK  144  A    between atoms: _359  and  _362
REMARK  145  A    between atoms: _362  and  _363
REMARK  146  A    between atoms: _368  and  _370
REMARK  147  A    between atoms: _370  and  _371
REMARK  148  A    between atoms: _370  and  _373
REMARK  149  A    between atoms: _373  and  _374
REMARK  150  A    between atoms: _384  and  _386
REMARK  151  A    between atoms: _386  and  _387
REMARK  152  A    between atoms: _386  and  _389
REMARK  153  A    between atoms: _389  and  _390
REMARK  154  A    between atoms: _396  and  _398
REMARK  155  A    between atoms: _398  and  _399
REMARK  156  A    between atoms: _398  and  _401
REMARK  157  A    between atoms: _401  and  _402
REMARK  158  A    between atoms: _405  and  _407
REMARK  159  A    between atoms: _407  and  _408
REMARK  160  A    between atoms: _407  and  _410
REMARK  161  A    between atoms: _410  and  _411
REMARK  162  A    between atoms: _414  and  _416
REMARK  163  A    between atoms: _416  and  _417
REMARK  164  A    between atoms: _416  and  _419
REMARK  165  A    between atoms: _419  and  _420
REMARK  166  A    between atoms: _420  and  _421
REMARK  167  A    between atoms: _421  and  _422
REMARK  168  A    between atoms: _431  and  _433
REMARK  169  A    between atoms: _433  and  _434
REMARK  170  A    between atoms: _433  and  _436
REMARK  171  A    between atoms: _436  and  _437
REMARK  172  A    between atoms: _442  and  _444
REMARK  173  A    between atoms: _444  and  _445
REMARK  174  A    between atoms: _444  and  _447
REMARK  175  A    between atoms: _447  and  _448
REMARK  176  A    between atoms: _448  and  _449
REMARK  177  A    between atoms: _449  and  _450
REMARK  178  A    between atoms: _459  and  _461
REMARK  179  A    between atoms: _461  and  _462
REMARK  180  A    between atoms: _465  and  _467
REMARK  181  A    between atoms: _467  and  _468
REMARK  182  A    between atoms: _470  and  _472
REMARK  183  A    between atoms: _472  and  _473
REMARK  184  A    between atoms: _472  and  _475
REMARK  185  A    between atoms: _475  and  _476
REMARK  186  A    between atoms: _486  and  _488
REMARK  187  A    between atoms: _488  and  _489
REMARK  188  A    between atoms: _488  and  _491
REMARK  189  A    between atoms: _491  and  _492
REMARK  190  A    between atoms: _493  and  _495
REMARK  191  A    between atoms: _495  and  _496
REMARK  192  A    between atoms: _499  and  _501
REMARK  193  A    between atoms: _501  and  _502
REMARK  194  A    between atoms: _501  and  _504
REMARK  195  A    between atoms: _504  and  _505
REMARK  196  A    between atoms: _508  and  _510
REMARK  197  A    between atoms: _510  and  _511
REMARK  198  A    between atoms: _510  and  _513
REMARK  199  A    between atoms: _513  and  _514
REMARK  200  A    between atoms: _519  and  _520
REMARK  201  A    between atoms: _522  and  _524
REMARK  202  A    between atoms: _524  and  _525
REMARK  203  A    between atoms: _524  and  _527
REMARK  204  A    between atoms: _527  and  _528
REMARK  205  A    between atoms: _530  and  _532
REMARK  206  A    between atoms: _532  and  _533
REMARK  207  A    between atoms: _532  and  _535
REMARK  208  A    between atoms: _535  and  _536
REMARK  209  A    between atoms: _542  and  _544
REMARK  210  A    between atoms: _544  and  _545
REMARK  211  A    between atoms: _544  and  _547
REMARK  212  A    between atoms: _547  and  _548
REMARK  213  A    between atoms: _551  and  _553
REMARK  214  A    between atoms: _553  and  _554
REMARK  215  A    between atoms: _553  and  _556
REMARK  216  A    between atoms: _556  and  _557
REMARK  217  A    between atoms: _559  and  _561
REMARK  218  A    between atoms: _561  and  _562
REMARK  219  A    between atoms: _561  and  _564
REMARK  220  A    between atoms: _564  and  _565
REMARK  221  A    between atoms: _570  and  _572
REMARK  222  A    between atoms: _572  and  _573
REMARK  223  A    between atoms: _572  and  _575
REMARK  224  A    between atoms: _575  and  _576
REMARK  225  A    between atoms: _581  and  _583
REMARK  226  A    between atoms: _583  and  _584
REMARK  227  A    between atoms: _583  and  _586
REMARK  228  A    between atoms: _586  and  _587
REMARK  229  A    between atoms: _590  and  _592
REMARK  230  A    between atoms: _592  and  _593
REMARK  231  A    between atoms: _592  and  _595
REMARK  232  A    between atoms: _595  and  _596
REMARK  233  A    between atoms: _601  and  _602
REMARK  234  A    between atoms: _604  and  _606
REMARK  235  A    between atoms: _606  and  _607
REMARK  236  A    between atoms: _606  and  _609
REMARK  237  A    between atoms: _609  and  _610
REMARK  238  A    between atoms: _615  and  _616
REMARK  239  A    between atoms: _618  and  _620
REMARK  240  A    between atoms: _620  and  _621
REMARK  241  A    between atoms: _620  and  _623
REMARK  242  A    between atoms: _626  and  _628
REMARK  243  A    between atoms: _628  and  _629
REMARK  244  A    between atoms: _628  and  _631
REMARK  245  A    between atoms: _631  and  _632
REMARK  246  A    between atoms: _637  and  _639
REMARK  247  A    between atoms: _639  and  _640
REMARK  248  A    between atoms: _643  and  _645
REMARK  249  A    between atoms: _645  and  _646
REMARK  250  A    between atoms: _645  and  _648
REMARK  251  A    between atoms: _648  and  _649
REMARK  252  A    between atoms: _649  and  _650
REMARK  253  A    between atoms: _650  and  _651
REMARK  254  A    between atoms: _660  and  _662
REMARK  255  A    between atoms: _662  and  _663
REMARK  256  A    between atoms: _662  and  _665
REMARK  257  A    between atoms: _665  and  _666
REMARK  258  A    between atoms: _669  and  _671
REMARK  259  A    between atoms: _671  and  _672
REMARK  260  A    between atoms: _671  and  _674
REMARK  261  A    between atoms: _674  and  _675
REMARK  262  A    between atoms: _678  and  _680
REMARK  263  A    between atoms: _680  and  _681
REMARK  264  A    between atoms: _680  and  _683
REMARK  265  A    between atoms: _683  and  _684
REMARK                            x       y       z     vdW  Elec       q    Type
REMARK                         _______ _______ _______ _____ _____    ______ ____
ROOT
ATOM      1  O   HOH     1       1.939  14.628   8.419  0.00  0.00    +0.000 OA
ENDROOT
TORSDOF 0
REMARK  Name = ../refined-set-2016/1b9j/1b9j_pocket.pdb
REMARK  265 active torsions:
REMARK  status: ('A' for Active; 'I' for Inactive)
REMARK    1  A    between atoms: _1  and  _3
REMARK    2  A    between atoms: _3  and  _4
REMARK    3  A    between atoms: _3  and  _6
REMARK    4  A    between atoms: _6  and  _7
REMARK    5  A    between atoms: _12  and  _14
REMARK    6  A    between atoms: _14  and  _15
REMARK    7  A    between atoms: _17  and  _19
REMARK    8  A    between atoms: _19  and  _20
REMARK    9  A    between atoms: _19  and  _22
REMARK   10  A    between atoms: _22  and  _23
REMARK   11  A    between atoms: _25  and  _27
REMARK   12  A    between atoms: _27  and  _28
REMARK   13  A    between atoms: _27  and  _30
REMARK   14  A    between atoms: _30  and  _31
REMARK   15  A    between atoms: _31  and  _32
REMARK   16  A    between atoms: _37  and  _39
REMARK   17  A    between atoms: _39  and  _40
REMARK   18  A    between atoms: _39  and  _42
REMARK   19  A    between atoms: _42  and  _43
REMARK   20  A    between atoms: _46  and  _48
REMARK   21  A    between atoms: _48  and  _49
REMARK   22  A    between atoms: _48  and  _51
REMARK   23  A    between atoms: _51  and  _52
REMARK   24  A    between atoms: _52  and  _53
REMARK   25  A    between atoms: _56  and  _58
REMARK   26  A    between atoms: _58  and  _59
REMARK   27  A    between atoms: _61  and  _63
REMARK   28  A    between atoms: _63  and  _64
REMARK   29  A    between atoms: _63  and  _66
REMARK   30  A    between atoms: _70  and  _71
REMARK   31  A    between atoms: _76  and  _78
REMARK   32  A    between atoms: _78  and  _79
REMARK   33  A    between atoms: _78  and  _81
REMARK   34  A    between atoms: _81  and  _82
REMARK   35  A    between atoms: _82  and  _83
REMARK   36  A    between atoms: _86  and  _88
REMARK   37  A    between atoms: _88  and  _89
REMARK   38  A    between atoms: _88  and  _91
REMARK   39  A    between atoms: _91  and  _92
REMARK   40  A    between atoms: _94  and  _96
REMARK   41  A    between atoms: _96  and  _97
REMARK   42  A    between atoms: _96  and  _99
REMARK   43  A    between atoms: _99  and  _100
REMARK   44  A    between atoms: _105  and  _107
REMARK   45  A    between atoms: _107  and  _108
REMARK   46  A    between atoms: _107  and  _110
REMARK   47  A    between atoms: _110  and  _111
REMARK   48  A    between atoms: _111  and  _112
REMARK   49  A    between atoms: _112  and  _113
REMARK   50  A    between atoms: _123  and  _124
REMARK   51  A    between atoms: _129  and  _131
REMARK   52  A    between atoms: _131  and  _132
REMARK   53  A    between atoms: _131  and  _134
REMARK   54  A    between atoms: _134  and  _135
REMARK   55  A    between atoms: _140  and  _141
REMARK   56  A    between atoms: _143  and  _145
REMARK   57  A    between atoms: _145  and  _146
REMARK   58  A    between atoms: _145  and  _148
REMARK   59  A    between atoms: _148  and  _149
REMARK   60  A    between atoms: _154  and  _155
REMARK   61  A    between atoms: _157  and  _159
REMARK   62  A    between atoms: _159  and  _160
REMARK   63  A    between atoms: _159  and  _162
REMARK   64  A    between atoms: _165  and  _167
REMARK   65  A    between atoms: _167  and  _168
REMARK   66  A    between atoms: _167  and  _170
REMARK   67  A    between atoms: _170  and  _171
REMARK   68  A    between atoms: _177  and  _178
REMARK   69  A    between atoms: _183  and  _185
REMARK   70  A    between atoms: _185  and  _186
REMARK   71  A    between atoms: _185  and  _188
REMARK   72  A    between atoms: _188  and  _189
REMARK   73  A    between atoms: _191  and  _193
REMARK   74  A    between atoms: _193  and  _194
REMARK   75  A    between atoms: _193  and  _196
REMARK   76  A    between atoms: _196  and  _197
REMARK   77  A    between atoms: _197  and  _198
REMARK   78  A    between atoms: _201  and  _203
REMARK   79  A    between atoms: _203  and  _204
REMARK   80  A    between atoms: _203  and  _206
REMARK   81  A    between atoms: _206  and  _207
REMARK   82  A    between atoms: _212  and  _213
REMARK   83  A    between atoms: _215  and  _217
REMARK   84  A    between atoms: _217  and  _218
REMARK   85  A    between atoms: _217  and  _220
REMARK   86  A    between atoms: _220  and  _221
REMARK   87  A    between atoms: _226  and  _228
REMARK   88  A    between atoms: _228  and  _229
REMARK   89  A    between atoms: _228  and  _231
REMARK   90  A    between atoms: _231  and  _232
REMARK   91  A    between atoms: _237  and  _239
REMARK   92  A    between atoms: _239  and  _240
REMARK   93  A    between atoms: _239  and  _242
REMARK   94  A    between atoms: _242  and  _243
REMARK   95  A    between atoms: _243  and  _244
REMARK   96  A    between atoms: _246  and  _248
REMARK   97  A    between atoms: _248  and  _249
REMARK   98  A    between atoms: _248  and  _251
REMARK   99  A    between atoms: _251  and  _252
REMARK  100  A    between atoms: _257  and  _258
REMARK  101  A    between atoms: _260  and  _262
REMARK  102  A    between atoms: _262  and  _263
REMARK  103  A    between atoms: _262  and  _265
REMARK  104  A    between atoms: _265  and  _266
REMARK  105  A    between atoms: _269  and  _271
REMARK  106  A    between atoms: _271  and  _272
REMARK  107  A    between atoms: _271  and  _274
REMARK  108  A    between atoms: _274  and  _275
REMARK  109  A    between atoms: _275  and  _492
REMARK  110  A    between atoms: _276  and  _278
REMARK  111  A    between atoms: _278  and  _279
REMARK  112  A    between atoms: _278  and  _281
REMARK  113  A    between atoms: _281  and  _282
REMARK  114  A    between atoms: _285  and  _287
REMARK  115  A    between atoms: _287  and  _288
REMARK  116  A    between atoms: _287  and  _290
REMARK  117  A    between atoms: _290  and  _291
REMARK  118  A    between atoms: _296  and  _297
REMARK  119  A    between atoms: _299  and  _301
REMARK  120  A    between atoms: _301  and  _302
REMARK  121  A    between atoms: _301  and  _304
REMARK  122  A    between atoms: _304  and  _305
REMARK  123  A    between atoms: _310  and  _311
REMARK  124  A    between atoms: _313  and  _315
REMARK  125  A    between atoms: _315  and  _316
REMARK  126  A    between atoms: _315  and  _318
REMARK  127  A    between atoms: _318  and  _319
REMARK  128  A    between atoms: _319  and  _320
REMARK  129  A    between atoms: _323  and  _325
REMARK  130  A    between atoms: _325  and  _326
REMARK  131  A    between atoms: _325  and  _328
REMARK  132  A    between atoms: _328  and  _329
REMARK  133  A    between atoms: _334  and  _335
REMARK  134  A    between atoms: _337  and  _339
REMARK  135  A    between atoms: _339  and  _340
REMARK  136  A    between atoms: _339  and  _342
REMARK  137  A    between atoms: _342  and  _343
REMARK  138  A    between atoms: _348  and  _350
REMARK  139  A    between atoms: _350  and  _351
REMARK  140  A    between atoms: _350  and  _353
REMARK  141  A    between atoms: _353  and  _354
REMARK  142  A    between atoms: _357  and  _359
REMARK  143  A    between atoms: _359  and  _360
REMARK  144  A    between atoms: _359  and  _362
REMARK  145  A    between atoms: _362  and  _363
REMARK  146  A    between atoms: _368  and  _370
REMARK  147  A    between atoms: _370  and  _371
REMARK  148  A    between atoms: _370  and  _373
REMARK  149  A    between atoms: _373  and  _374
REMARK  150  A    between atoms: _384  and  _386
REMARK  151  A    between atoms: _386  and  _387
REMARK  152  A    between atoms: _386  and  _389
REMARK  153  A    between atoms: _389  and  _390
REMARK  154  A    between atoms: _396  and  _398
REMARK  155  A    between atoms: _398  and  _399
REMARK  156  A    between atoms: _398  and  _401
REMARK  157  A    between atoms: _401  and  _402
REMARK  158  A    between atoms: _405  and  _407
REMARK  159  A    between atoms: _407  and  _408
REMARK  160  A    between atoms: _407  and  _410
REMARK  161  A    between atoms: _410  and  _411
REMARK  162  A    between atoms: _414  and  _416
REMARK  163  A    between atoms: _416  and  _417
REMARK  164  A    between atoms: _416  and  _419
REMARK  165  A    between atoms: _419  and  _420
REMARK  166  A    between atoms: _420  and  _421
REMARK  167  A    between atoms: _421  and  _422
REMARK  168  A    between atoms: _431  and  _433
REMARK  169  A    between atoms: _433  and  _434
REMARK  170  A    between atoms: _433  and  _436
REMARK  171  A    between atoms: _436  and  _437
REMARK  172  A    between atoms: _442  and  _444
REMARK  173  A    between atoms: _444  and  _445
REMARK  174  A    between atoms: _444  and  _447
REMARK  175  A    between atoms: _447  and  _448
REMARK  176  A    between atoms: _448  and  _449
REMARK  177  A    between atoms: _449  and  _450
REMARK  178  A    between atoms: _459  and  _461
REMARK  179  A    between atoms: _461  and  _462
REMARK  180  A    between atoms: _465  and  _467
REMARK  181  A    between atoms: _467  and  _468
REMARK  182  A    between atoms: _470  and  _472
REMARK  183  A    between atoms: _472  and  _473
REMARK  184  A    between atoms: _472  and  _475
REMARK  185  A    between atoms: _475  and  _476
REMARK  186  A    between atoms: _486  and  _488
REMARK  187  A    between atoms: _488  and  _489
REMARK  188  A    between atoms: _488  and  _491
REMARK  189  A    between atoms: _491  and  _492
REMARK  190  A    between atoms: _493  and  _495
REMARK  191  A    between atoms: _495  and  _496
REMARK  192  A    between atoms: _499  and  _501
REMARK  193  A    between atoms: _501  and  _502
REMARK  194  A    between atoms: _501  and  _504
REMARK  195  A    between atoms: _504  and  _505
REMARK  196  A    between atoms: _508  and  _510
REMARK  197  A    between atoms: _510  and  _511
REMARK  198  A    between atoms: _510  and  _513
REMARK  199  A    between atoms: _513  and  _514
REMARK  200  A    between atoms: _519  and  _520
REMARK  201  A    between atoms: _522  and  _524
REMARK  202  A    between atoms: _524  and  _525
REMARK  203  A    between atoms: _524  and  _527
REMARK  204  A    between atoms: _527  and  _528
REMARK  205  A    between atoms: _530  and  _532
REMARK  206  A    between atoms: _532  and  _533
REMARK  207  A    between atoms: _532  and  _535
REMARK  208  A    between atoms: _535  and  _536
REMARK  209  A    between atoms: _542  and  _544
REMARK  210  A    between atoms: _544  and  _545
REMARK  211  A    between atoms: _544  and  _547
REMARK  212  A    between atoms: _547  and  _548
REMARK  213  A    between atoms: _551  and  _553
REMARK  214  A    between atoms: _553  and  _554
REMARK  215  A    between atoms: _553  and  _556
REMARK  216  A    between atoms: _556  and  _557
REMARK  217  A    between atoms: _559  and  _561
REMARK  218  A    between atoms: _561  and  _562
REMARK  219  A    between atoms: _561  and  _564
REMARK  220  A    between atoms: _564  and  _565
REMARK  221  A    between atoms: _570  and  _572
REMARK  222  A    between atoms: _572  and  _573
REMARK  223  A    between atoms: _572  and  _575
REMARK  224  A    between atoms: _575  and  _576
REMARK  225  A    between atoms: _581  and  _583
REMARK  226  A    between atoms: _583  and  _584
REMARK  227  A    between atoms: _583  and  _586
REMARK  228  A    between atoms: _586  and  _587
REMARK  229  A    between atoms: _590  and  _592
REMARK  230  A    between atoms: _592  and  _593
REMARK  231  A    between atoms: _592  and  _595
REMARK  232  A    between atoms: _595  and  _596
REMARK  233  A    between atoms: _601  and  _602
REMARK  234  A    between atoms: _604  and  _606
REMARK  235  A    between atoms: _606  and  _607
REMARK  236  A    between atoms: _606  and  _609
REMARK  237  A    between atoms: _609  and  _610
REMARK  238  A    between atoms: _615  and  _616
REMARK  239  A    between atoms: _618  and  _620
REMARK  240  A    between atoms: _620  and  _621
REMARK  241  A    between atoms: _620  and  _623
REMARK  242  A    between atoms: _626  and  _628
REMARK  243  A    between atoms: _628  and  _629
REMARK  244  A    between atoms: _628  and  _631
REMARK  245  A    between atoms: _631  and  _632
REMARK  246  A    between atoms: _637  and  _639
REMARK  247  A    between atoms: _639  and  _640
REMARK  248  A    between atoms: _643  and  _645
REMARK  249  A    between atoms: _645  and  _646
REMARK  250  A    between atoms: _645  and  _648
REMARK  251  A    between atoms: _648  and  _649
REMARK  252  A    between atoms: _649  and  _650
REMARK  253  A    between atoms: _650  and  _651
REMARK  254  A    between atoms: _660  and  _662
REMARK  255  A    between atoms: _662  and  _663
REMARK  256  A    between atoms: _662  and  _665
REMARK  257  A    between atoms: _665  and  _666
REMARK  258  A    between atoms: _669  and  _671
REMARK  259  A    between atoms: _671  and  _672
REMARK  260  A    between atoms: _671  and  _674
REMARK  261  A    between atoms: _674  and  _675
REMARK  262  A    between atoms: _678  and  _680
REMARK  263  A    between atoms: _680  and  _681
REMARK  264  A    between atoms: _680  and  _683
REMARK  265  A    between atoms: _683  and  _684
REMARK                            x       y       z     vdW  Elec       q    Type
REMARK                         _______ _______ _______ _____ _____    ______ ____
ROOT
ATOM      1  O   HOH     1      -4.242  19.677  16.306  0.00  0.00    +0.000 OA
ENDROOT
TORSDOF 0
REMARK  Name = ../refined-set-2016/1b9j/1b9j_pocket.pdb
REMARK  265 active torsions:
REMARK  status: ('A' for Active; 'I' for Inactive)
REMARK    1  A    between atoms: _1  and  _3
REMARK    2  A    between atoms: _3  and  _4
REMARK    3  A    between atoms: _3  and  _6
REMARK    4  A    between atoms: _6  and  _7
REMARK    5  A    between atoms: _12  and  _14
REMARK    6  A    between atoms: _14  and  _15
REMARK    7  A    between atoms: _17  and  _19
REMARK    8  A    between atoms: _19  and  _20
REMARK    9  A    between atoms: _19  and  _22
REMARK   10  A    between atoms: _22  and  _23
REMARK   11  A    between atoms: _25  and  _27
REMARK   12  A    between atoms: _27  and  _28
REMARK   13  A    between atoms: _27  and  _30
REMARK   14  A    between atoms: _30  and  _31
REMARK   15  A    between atoms: _31  and  _32
REMARK   16  A    between atoms: _37  and  _39
REMARK   17  A    between atoms: _39  and  _40
REMARK   18  A    between atoms: _39  and  _42
REMARK   19  A    between atoms: _42  and  _43
REMARK   20  A    between atoms: _46  and  _48
REMARK   21  A    between atoms: _48  and  _49
REMARK   22  A    between atoms: _48  and  _51
REMARK   23  A    between atoms: _51  and  _52
REMARK   24  A    between atoms: _52  and  _53
REMARK   25  A    between atoms: _56  and  _58
REMARK   26  A    between atoms: _58  and  _59
REMARK   27  A    between atoms: _61  and  _63
REMARK   28  A    between atoms: _63  and  _64
REMARK   29  A    between atoms: _63  and  _66
REMARK   30  A    between atoms: _70  and  _71
REMARK   31  A    between atoms: _76  and  _78
REMARK   32  A    between atoms: _78  and  _79
REMARK   33  A    between atoms: _78  and  _81
REMARK   34  A    between atoms: _81  and  _82
REMARK   35  A    between atoms: _82  and  _83
REMARK   36  A    between atoms: _86  and  _88
REMARK   37  A    between atoms: _88  and  _89
REMARK   38  A    between atoms: _88  and  _91
REMARK   39  A    between atoms: _91  and  _92
REMARK   40  A    between atoms: _94  and  _96
REMARK   41  A    between atoms: _96  and  _97
REMARK   42  A    between atoms: _96  and  _99
REMARK   43  A    between atoms: _99  and  _100
REMARK   44  A    between atoms: _105  and  _107
REMARK   45  A    between atoms: _107  and  _108
REMARK   46  A    between atoms: _107  and  _110
REMARK   47  A    between atoms: _110  and  _111
REMARK   48  A    between atoms: _111  and  _112
REMARK   49  A    between atoms: _112  and  _113
REMARK   50  A    between atoms: _123  and  _124
REMARK   51  A    between atoms: _129  and  _131
REMARK   52  A    between atoms: _131  and  _132
REMARK   53  A    between atoms: _131  and  _134
REMARK   54  A    between atoms: _134  and  _135
REMARK   55  A    between atoms: _140  and  _141
REMARK   56  A    between atoms: _143  and  _145
REMARK   57  A    between atoms: _145  and  _146
REMARK   58  A    between atoms: _145  and  _148
REMARK   59  A    between atoms: _148  and  _149
REMARK   60  A    between atoms: _154  and  _155
REMARK   61  A    between atoms: _157  and  _159
REMARK   62  A    between atoms: _159  and  _160
REMARK   63  A    between atoms: _159  and  _162
REMARK   64  A    between atoms: _165  and  _167
REMARK   65  A    between atoms: _167  and  _168
REMARK   66  A    between atoms: _167  and  _170
REMARK   67  A    between atoms: _170  and  _171
REMARK   68  A    between atoms: _177  and  _178
REMARK   69  A    between atoms: _183  and  _185
REMARK   70  A    between atoms: _185  and  _186
REMARK   71  A    between atoms: _185  and  _188
REMARK   72  A    between atoms: _188  and  _189
REMARK   73  A    between atoms: _191  and  _193
REMARK   74  A    between atoms: _193  and  _194
REMARK   75  A    between atoms: _193  and  _196
REMARK   76  A    between atoms: _196  and  _197
REMARK   77  A    between atoms: _197  and  _198
REMARK   78  A    between atoms: _201  and  _203
REMARK   79  A    between atoms: _203  and  _204
REMARK   80  A    between atoms: _203  and  _206
REMARK   81  A    between atoms: _206  and  _207
REMARK   82  A    between atoms: _212  and  _213
REMARK   83  A    between atoms: _215  and  _217
REMARK   84  A    between atoms: _217  and  _218
REMARK   85  A    between atoms: _217  and  _220
REMARK   86  A    between atoms: _220  and  _221
REMARK   87  A    between atoms: _226  and  _228
REMARK   88  A    between atoms: _228  and  _229
REMARK   89  A    between atoms: _228  and  _231
REMARK   90  A    between atoms: _231  and  _232
REMARK   91  A    between atoms: _237  and  _239
REMARK   92  A    between atoms: _239  and  _240
REMARK   93  A    between atoms: _239  and  _242
REMARK   94  A    between atoms: _242  and  _243
REMARK   95  A    between atoms: _243  and  _244
REMARK   96  A    between atoms: _246  and  _248
REMARK   97  A    between atoms: _248  and  _249
REMARK   98  A    between atoms: _248  and  _251
REMARK   99  A    between atoms: _251  and  _252
REMARK  100  A    between atoms: _257  and  _258
REMARK  101  A    between atoms: _260  and  _262
REMARK  102  A    between atoms: _262  and  _263
REMARK  103  A    between atoms: _262  and  _265
REMARK  104  A    between atoms: _265  and  _266
REMARK  105  A    between atoms: _269  and  _271
REMARK  106  A    between atoms: _271  and  _272
REMARK  107  A    between atoms: _271  and  _274
REMARK  108  A    between atoms: _274  and  _275
REMARK  109  A    between atoms: _275  and  _492
REMARK  110  A    between atoms: _276  and  _278
REMARK  111  A    between atoms: _278  and  _279
REMARK  112  A    between atoms: _278  and  _281
REMARK  113  A    between atoms: _281  and  _282
REMARK  114  A    between atoms: _285  and  _287
REMARK  115  A    between atoms: _287  and  _288
REMARK  116  A    between atoms: _287  and  _290
REMARK  117  A    between atoms: _290  and  _291
REMARK  118  A    between atoms: _296  and  _297
REMARK  119  A    between atoms: _299  and  _301
REMARK  120  A    between atoms: _301  and  _302
REMARK  121  A    between atoms: _301  and  _304
REMARK  122  A    between atoms: _304  and  _305
REMARK  123  A    between atoms: _310  and  _311
REMARK  124  A    between atoms: _313  and  _315
REMARK  125  A    between atoms: _315  and  _316
REMARK  126  A    between atoms: _315  and  _318
REMARK  127  A    between atoms: _318  and  _319
REMARK  128  A    between atoms: _319  and  _320
REMARK  129  A    between atoms: _323  and  _325
REMARK  130  A    between atoms: _325  and  _326
REMARK  131  A    between atoms: _325  and  _328
REMARK  132  A    between atoms: _328  and  _329
REMARK  133  A    between atoms: _334  and  _335
REMARK  134  A    between atoms: _337  and  _339
REMARK  135  A    between atoms: _339  and  _340
REMARK  136  A    between atoms: _339  and  _342
REMARK  137  A    between atoms: _342  and  _343
REMARK  138  A    between atoms: _348  and  _350
REMARK  139  A    between atoms: _350  and  _351
REMARK  140  A    between atoms: _350  and  _353
REMARK  141  A    between atoms: _353  and  _354
REMARK  142  A    between atoms: _357  and  _359
REMARK  143  A    between atoms: _359  and  _360
REMARK  144  A    between atoms: _359  and  _362
REMARK  145  A    between atoms: _362  and  _363
REMARK  146  A    between atoms: _368  and  _370
REMARK  147  A    between atoms: _370  and  _371
REMARK  148  A    between atoms: _370  and  _373
REMARK  149  A    between atoms: _373  and  _374
REMARK  150  A    between atoms: _384  and  _386
REMARK  151  A    between atoms: _386  and  _387
REMARK  152  A    between atoms: _386  and  _389
REMARK  153  A    between atoms: _389  and  _390
REMARK  154  A    between atoms: _396  and  _398
REMARK  155  A    between atoms: _398  and  _399
REMARK  156  A    between atoms: _398  and  _401
REMARK  157  A    between atoms: _401  and  _402
REMARK  158  A    between atoms: _405  and  _407
REMARK  159  A    between atoms: _407  and  _408
REMARK  160  A    between atoms: _407  and  _410
REMARK  161  A    between atoms: _410  and  _411
REMARK  162  A    between atoms: _414  and  _416
REMARK  163  A    between atoms: _416  and  _417
REMARK  164  A    between atoms: _416  and  _419
REMARK  165  A    between atoms: _419  and  _420
REMARK  166  A    between atoms: _420  and  _421
REMARK  167  A    between atoms: _421  and  _422
REMARK  168  A    between atoms: _431  and  _433
REMARK  169  A    between atoms: _433  and  _434
REMARK  170  A    between atoms: _433  and  _436
REMARK  171  A    between atoms: _436  and  _437
REMARK  172  A    between atoms: _442  and  _444
REMARK  173  A    between atoms: _444  and  _445
REMARK  174  A    between atoms: _444  and  _447
REMARK  175  A    between atoms: _447  and  _448
REMARK  176  A    between atoms: _448  and  _449
REMARK  177  A    between atoms: _449  and  _450
REMARK  178  A    between atoms: _459  and  _461
REMARK  179  A    between atoms: _461  and  _462
REMARK  180  A    between atoms: _465  and  _467
REMARK  181  A    between atoms: _467  and  _468
REMARK  182  A    between atoms: _470  and  _472
REMARK  183  A    between atoms: _472  and  _473
REMARK  184  A    between atoms: _472  and  _475
REMARK  185  A    between atoms: _475  and  _476
REMARK  186  A    between atoms: _486  and  _488
REMARK  187  A    between atoms: _488  and  _489
REMARK  188  A    between atoms: _488  and  _491
REMARK  189  A    between atoms: _491  and  _492
REMARK  190  A    between atoms: _493  and  _495
REMARK  191  A    between atoms: _495  and  _496
REMARK  192  A    between atoms: _499  and  _501
REMARK  193  A    between atoms: _501  and  _502
REMARK  194  A    between atoms: _501  and  _504
REMARK  195  A    between atoms: _504  and  _505
REMARK  196  A    between atoms: _508  and  _510
REMARK  197  A    between atoms: _510  and  _511
REMARK  198  A    between atoms: _510  and  _513
REMARK  199  A    between atoms: _513  and  _514
REMARK  200  A    between atoms: _519  and  _520
REMARK  201  A    between atoms: _522  and  _524
REMARK  202  A    between atoms: _524  and  _525
REMARK  203  A    between atoms: _524  and  _527
REMARK  204  A    between atoms: _527  and  _528
REMARK  205  A    between atoms: _530  and  _532
REMARK  206  A    between atoms: _532  and  _533
REMARK  207  A    between atoms: _532  and  _535
REMARK  208  A    between atoms: _535  and  _536
REMARK  209  A    between atoms: _542  and  _544
REMARK  210  A    between atoms: _544  and  _545
REMARK  211  A    between atoms: _544  and  _547
REMARK  212  A    between atoms: _547  and  _548
REMARK  213  A    between atoms: _551  and  _553
REMARK  214  A    between atoms: _553  and  _554
REMARK  215  A    between atoms: _553  and  _556
REMARK  216  A    between atoms: _556  and  _557
REMARK  217  A    between atoms: _559  and  _561
REMARK  218  A    between atoms: _561  and  _562
REMARK  219  A    between atoms: _561  and  _564
REMARK  220  A    between atoms: _564  and  _565
REMARK  221  A    between atoms: _570  and  _572
REMARK  222  A    between atoms: _572  and  _573
REMARK  223  A    between atoms: _572  and  _575
REMARK  224  A    between atoms: _575  and  _576
REMARK  225  A    between atoms: _581  and  _583
REMARK  226  A    between atoms: _583  and  _584
REMARK  227  A    between atoms: _583  and  _586
REMARK  228  A    between atoms: _586  and  _587
REMARK  229  A    between atoms: _590  and  _592
REMARK  230  A    between atoms: _592  and  _593
REMARK  231  A    between atoms: _592  and  _595
REMARK  232  A    between atoms: _595  and  _596
REMARK  233  A    between atoms: _601  and  _602
REMARK  234  A    between atoms: _604  and  _606
REMARK  235  A    between atoms: _606  and  _607
REMARK  236  A    between atoms: _606  and  _609
REMARK  237  A    between atoms: _609  and  _610
REMARK  238  A    between atoms: _615  and  _616
REMARK  239  A    between atoms: _618  and  _620
REMARK  240  A    between atoms: _620  and  _621
REMARK  241  A    between atoms: _620  and  _623
REMARK  242  A    between atoms: _626  and  _628
REMARK  243  A    between atoms: _628  and  _629
REMARK  244  A    between atoms: _628  and  _631
REMARK  245  A    between atoms: _631  and  _632
REMARK  246  A    between atoms: _637  and  _639
REMARK  247  A    between atoms: _639  and  _640
REMARK  248  A    between atoms: _643  and  _645
REMARK  249  A    between atoms: _645  and  _646
REMARK  250  A    between atoms: _645  and  _648
REMARK  251  A    between atoms: _648  and  _649
REMARK  252  A    between atoms: _649  and  _650
REMARK  253  A    between atoms: _650  and  _651
REMARK  254  A    between atoms: _660  and  _662
REMARK  255  A    between atoms: _662  and  _663
REMARK  256  A    between atoms: _662  and  _665
REMARK  257  A    between atoms: _665  and  _666
REMARK  258  A    between atoms: _669  and  _671
REMARK  259  A    between atoms: _671  and  _672
REMARK  260  A    between atoms: _671  and  _674
REMARK  261  A    between atoms: _674  and  _675
REMARK  262  A    between atoms: _678  and  _680
REMARK  263  A    between atoms: _680  and  _681
REMARK  264  A    between atoms: _680  and  _683
REMARK  265  A    between atoms: _683  and  _684
REMARK                            x       y       z     vdW  Elec       q    Type
REMARK                         _______ _______ _______ _____ _____    ______ ____
ROOT
ATOM      1  O   HOH     1       5.586  20.057  24.325  0.00  0.00    +0.000 OA
ENDROOT
TORSDOF 0
REMARK  Name = ../refined-set-2016/1b9j/1b9j_pocket.pdb
REMARK  265 active torsions:
REMARK  status: ('A' for Active; 'I' for Inactive)
REMARK    1  A    between atoms: _1  and  _3
REMARK    2  A    between atoms: _3  and  _4
REMARK    3  A    between atoms: _3  and  _6
REMARK    4  A    between atoms: _6  and  _7
REMARK    5  A    between atoms: _12  and  _14
REMARK    6  A    between atoms: _14  and  _15
REMARK    7  A    between atoms: _17  and  _19
REMARK    8  A    between atoms: _19  and  _20
REMARK    9  A    between atoms: _19  and  _22
REMARK   10  A    between atoms: _22  and  _23
REMARK   11  A    between atoms: _25  and  _27
REMARK   12  A    between atoms: _27  and  _28
REMARK   13  A    between atoms: _27  and  _30
REMARK   14  A    between atoms: _30  and  _31
REMARK   15  A    between atoms: _31  and  _32
REMARK   16  A    between atoms: _37  and  _39
REMARK   17  A    between atoms: _39  and  _40
REMARK   18  A    between atoms: _39  and  _42
REMARK   19  A    between atoms: _42  and  _43
REMARK   20  A    between atoms: _46  and  _48
REMARK   21  A    between atoms: _48  and  _49
REMARK   22  A    between atoms: _48  and  _51
REMARK   23  A    between atoms: _51  and  _52
REMARK   24  A    between atoms: _52  and  _53
REMARK   25  A    between atoms: _56  and  _58
REMARK   26  A    between atoms: _58  and  _59
REMARK   27  A    between atoms: _61  and  _63
REMARK   28  A    between atoms: _63  and  _64
REMARK   29  A    between atoms: _63  and  _66
REMARK   30  A    between atoms: _70  and  _71
REMARK   31  A    between atoms: _76  and  _78
REMARK   32  A    between atoms: _78  and  _79
REMARK   33  A    between atoms: _78  and  _81
REMARK   34  A    between atoms: _81  and  _82
REMARK   35  A    between atoms: _82  and  _83
REMARK   36  A    between atoms: _86  and  _88
REMARK   37  A    between atoms: _88  and  _89
REMARK   38  A    between atoms: _88  and  _91
REMARK   39  A    between atoms: _91  and  _92
REMARK   40  A    between atoms: _94  and  _96
REMARK   41  A    between atoms: _96  and  _97
REMARK   42  A    between atoms: _96  and  _99
REMARK   43  A    between atoms: _99  and  _100
REMARK   44  A    between atoms: _105  and  _107
REMARK   45  A    between atoms: _107  and  _108
REMARK   46  A    between atoms: _107  and  _110
REMARK   47  A    between atoms: _110  and  _111
REMARK   48  A    between atoms: _111  and  _112
REMARK   49  A    between atoms: _112  and  _113
REMARK   50  A    between atoms: _123  and  _124
REMARK   51  A    between atoms: _129  and  _131
REMARK   52  A    between atoms: _131  and  _132
REMARK   53  A    between atoms: _131  and  _134
REMARK   54  A    between atoms: _134  and  _135
REMARK   55  A    between atoms: _140  and  _141
REMARK   56  A    between atoms: _143  and  _145
REMARK   57  A    between atoms: _145  and  _146
REMARK   58  A    between atoms: _145  and  _148
REMARK   59  A    between atoms: _148  and  _149
REMARK   60  A    between atoms: _154  and  _155
REMARK   61  A    between atoms: _157  and  _159
REMARK   62  A    between atoms: _159  and  _160
REMARK   63  A    between atoms: _159  and  _162
REMARK   64  A    between atoms: _165  and  _167
REMARK   65  A    between atoms: _167  and  _168
REMARK   66  A    between atoms: _167  and  _170
REMARK   67  A    between atoms: _170  and  _171
REMARK   68  A    between atoms: _177  and  _178
REMARK   69  A    between atoms: _183  and  _185
REMARK   70  A    between atoms: _185  and  _186
REMARK   71  A    between atoms: _185  and  _188
REMARK   72  A    between atoms: _188  and  _189
REMARK   73  A    between atoms: _191  and  _193
REMARK   74  A    between atoms: _193  and  _194
REMARK   75  A    between atoms: _193  and  _196
REMARK   76  A    between atoms: _196  and  _197
REMARK   77  A    between atoms: _197  and  _198
REMARK   78  A    between atoms: _201  and  _203
REMARK   79  A    between atoms: _203  and  _204
REMARK   80  A    between atoms: _203  and  _206
REMARK   81  A    between atoms: _206  and  _207
REMARK   82  A    between atoms: _212  and  _213
REMARK   83  A    between atoms: _215  and  _217
REMARK   84  A    between atoms: _217  and  _218
REMARK   85  A    between atoms: _217  and  _220
REMARK   86  A    between atoms: _220  and  _221
REMARK   87  A    between atoms: _226  and  _228
REMARK   88  A    between atoms: _228  and  _229
REMARK   89  A    between atoms: _228  and  _231
REMARK   90  A    between atoms: _231  and  _232
REMARK   91  A    between atoms: _237  and  _239
REMARK   92  A    between atoms: _239  and  _240
REMARK   93  A    between atoms: _239  and  _242
REMARK   94  A    between atoms: _242  and  _243
REMARK   95  A    between atoms: _243  and  _244
REMARK   96  A    between atoms: _246  and  _248
REMARK   97  A    between atoms: _248  and  _249
REMARK   98  A    between atoms: _248  and  _251
REMARK   99  A    between atoms: _251  and  _252
REMARK  100  A    between atoms: _257  and  _258
REMARK  101  A    between atoms: _260  and  _262
REMARK  102  A    between atoms: _262  and  _263
REMARK  103  A    between atoms: _262  and  _265
REMARK  104  A    between atoms: _265  and  _266
REMARK  105  A    between atoms: _269  and  _271
REMARK  106  A    between atoms: _271  and  _272
REMARK  107  A    between atoms: _271  and  _274
REMARK  108  A    between atoms: _274  and  _275
REMARK  109  A    between atoms: _275  and  _492
REMARK  110  A    between atoms: _276  and  _278
REMARK  111  A    between atoms: _278  and  _279
REMARK  112  A    between atoms: _278  and  _281
REMARK  113  A    between atoms: _281  and  _282
REMARK  114  A    between atoms: _285  and  _287
REMARK  115  A    between atoms: _287  and  _288
REMARK  116  A    between atoms: _287  and  _290
REMARK  117  A    between atoms: _290  and  _291
REMARK  118  A    between atoms: _296  and  _297
REMARK  119  A    between atoms: _299  and  _301
REMARK  120  A    between atoms: _301  and  _302
REMARK  121  A    between atoms: _301  and  _304
REMARK  122  A    between atoms: _304  and  _305
REMARK  123  A    between atoms: _310  and  _311
REMARK  124  A    between atoms: _313  and  _315
REMARK  125  A    between atoms: _315  and  _316
REMARK  126  A    between atoms: _315  and  _318
REMARK  127  A    between atoms: _318  and  _319
REMARK  128  A    between atoms: _319  and  _320
REMARK  129  A    between atoms: _323  and  _325
REMARK  130  A    between atoms: _325  and  _326
REMARK  131  A    between atoms: _325  and  _328
REMARK  132  A    between atoms: _328  and  _329
REMARK  133  A    between atoms: _334  and  _335
REMARK  134  A    between atoms: _337  and  _339
REMARK  135  A    between atoms: _339  and  _340
REMARK  136  A    between atoms: _339  and  _342
REMARK  137  A    between atoms: _342  and  _343
REMARK  138  A    between atoms: _348  and  _350
REMARK  139  A    between atoms: _350  and  _351
REMARK  140  A    between atoms: _350  and  _353
REMARK  141  A    between atoms: _353  and  _354
REMARK  142  A    between atoms: _357  and  _359
REMARK  143  A    between atoms: _359  and  _360
REMARK  144  A    between atoms: _359  and  _362
REMARK  145  A    between atoms: _362  and  _363
REMARK  146  A    between atoms: _368  and  _370
REMARK  147  A    between atoms: _370  and  _371
REMARK  148  A    between atoms: _370  and  _373
REMARK  149  A    between atoms: _373  and  _374
REMARK  150  A    between atoms: _384  and  _386
REMARK  151  A    between atoms: _386  and  _387
REMARK  152  A    between atoms: _386  and  _389
REMARK  153  A    between atoms: _389  and  _390
REMARK  154  A    between atoms: _396  and  _398
REMARK  155  A    between atoms: _398  and  _399
REMARK  156  A    between atoms: _398  and  _401
REMARK  157  A    between atoms: _401  and  _402
REMARK  158  A    between atoms: _405  and  _407
REMARK  159  A    between atoms: _407  and  _408
REMARK  160  A    between atoms: _407  and  _410
REMARK  161  A    between atoms: _410  and  _411
REMARK  162  A    between atoms: _414  and  _416
REMARK  163  A    between atoms: _416  and  _417
REMARK  164  A    between atoms: _416  and  _419
REMARK  165  A    between atoms: _419  and  _420
REMARK  166  A    between atoms: _420  and  _421
REMARK  167  A    between atoms: _421  and  _422
REMARK  168  A    between atoms: _431  and  _433
REMARK  169  A    between atoms: _433  and  _434
REMARK  170  A    between atoms: _433  and  _436
REMARK  171  A    between atoms: _436  and  _437
REMARK  172  A    between atoms: _442  and  _444
REMARK  173  A    between atoms: _444  and  _445
REMARK  174  A    between atoms: _444  and  _447
REMARK  175  A    between atoms: _447  and  _448
REMARK  176  A    between atoms: _448  and  _449
REMARK  177  A    between atoms: _449  and  _450
REMARK  178  A    between atoms: _459  and  _461
REMARK  179  A    between atoms: _461  and  _462
REMARK  180  A    between atoms: _465  and  _467
REMARK  181  A    between atoms: _467  and  _468
REMARK  182  A    between atoms: _470  and  _472
REMARK  183  A    between atoms: _472  and  _473
REMARK  184  A    between atoms: _472  and  _475
REMARK  185  A    between atoms: _475  and  _476
REMARK  186  A    between atoms: _486  and  _488
REMARK  187  A    between atoms: _488  and  _489
REMARK  188  A    between atoms: _488  and  _491
REMARK  189  A    between atoms: _491  and  _492
REMARK  190  A    between atoms: _493  and  _495
REMARK  191  A    between atoms: _495  and  _496
REMARK  192  A    between atoms: _499  and  _501
REMARK  193  A    between atoms: _501  and  _502
REMARK  194  A    between atoms: _501  and  _504
REMARK  195  A    between atoms: _504  and  _505
REMARK  196  A    between atoms: _508  and  _510
REMARK  197  A    between atoms: _510  and  _511
REMARK  198  A    between atoms: _510  and  _513
REMARK  199  A    between atoms: _513  and  _514
REMARK  200  A    between atoms: _519  and  _520
REMARK  201  A    between atoms: _522  and  _524
REMARK  202  A    between atoms: _524  and  _525
REMARK  203  A    between atoms: _524  and  _527
REMARK  204  A    between atoms: _527  and  _528
REMARK  205  A    between atoms: _530  and  _532
REMARK  206  A    between atoms: _532  and  _533
REMARK  207  A    between atoms: _532  and  _535
REMARK  208  A    between atoms: _535  and  _536
REMARK  209  A    between atoms: _542  and  _544
REMARK  210  A    between atoms: _544  and  _545
REMARK  211  A    between atoms: _544  and  _547
REMARK  212  A    between atoms: _547  and  _548
REMARK  213  A    between atoms: _551  and  _553
REMARK  214  A    between atoms: _553  and  _554
REMARK  215  A    between atoms: _553  and  _556
REMARK  216  A    between atoms: _556  and  _557
REMARK  217  A    between atoms: _559  and  _561
REMARK  218  A    between atoms: _561  and  _562
REMARK  219  A    between atoms: _561  and  _564
REMARK  220  A    between atoms: _564  and  _565
REMARK  221  A    between atoms: _570  and  _572
REMARK  222  A    between atoms: _572  and  _573
REMARK  223  A    between atoms: _572  and  _575
REMARK  224  A    between atoms: _575  and  _576
REMARK  225  A    between atoms: _581  and  _583
REMARK  226  A    between atoms: _583  and  _584
REMARK  227  A    between atoms: _583  and  _586
REMARK  228  A    between atoms: _586  and  _587
REMARK  229  A    between atoms: _590  and  _592
REMARK  230  A    between atoms: _592  and  _593
REMARK  231  A    between atoms: _592  and  _595
REMARK  232  A    between atoms: _595  and  _596
REMARK  233  A    between atoms: _601  and  _602
REMARK  234  A    between atoms: _604  and  _606
REMARK  235  A    between atoms: _606  and  _607
REMARK  236  A    between atoms: _606  and  _609
REMARK  237  A    between atoms: _609  and  _610
REMARK  238  A    between atoms: _615  and  _616
REMARK  239  A    between atoms: _618  and  _620
REMARK  240  A    between atoms: _620  and  _621
REMARK  241  A    between atoms: _620  and  _623
REMARK  242  A    between atoms: _626  and  _628
REMARK  243  A    between atoms: _628  and  _629
REMARK  244  A    between atoms: _628  and  _631
REMARK  245  A    between atoms: _631  and  _632
REMARK  246  A    between atoms: _637  and  _639
REMARK  247  A    between atoms: _639  and  _640
REMARK  248  A    between atoms: _643  and  _645
REMARK  249  A    between atoms: _645  and  _646
REMARK  250  A    between atoms: _645  and  _648
REMARK  251  A    between atoms: _648  and  _649
REMARK  252  A    between atoms: _649  and  _650
REMARK  253  A    between atoms: _650  and  _651
REMARK  254  A    between atoms: _660  and  _662
REMARK  255  A    between atoms: _662  and  _663
REMARK  256  A    between atoms: _662  and  _665
REMARK  257  A    between atoms: _665  and  _666
REMARK  258  A    between atoms: _669  and  _671
REMARK  259  A    between atoms: _671  and  _672
REMARK  260  A    between atoms: _671  and  _674
REMARK  261  A    between atoms: _674  and  _675
REMARK  262  A    between atoms: _678  and  _680
REMARK  263  A    between atoms: _680  and  _681
REMARK  264  A    between atoms: _680  and  _683
REMARK  265  A    between atoms: _683  and  _684
REMARK                            x       y       z     vdW  Elec       q    Type
REMARK                         _______ _______ _______ _____ _____    ______ ____
ROOT
ATOM      1  O   HOH     1       9.512  22.635  18.522  0.00  0.00    +0.000 OA
ENDROOT
TORSDOF 0
REMARK  Name = ../refined-set-2016/1b9j/1b9j_pocket.pdb
REMARK  265 active torsions:
REMARK  status: ('A' for Active; 'I' for Inactive)
REMARK    1  A    between atoms: _1  and  _3
REMARK    2  A    between atoms: _3  and  _4
REMARK    3  A    between atoms: _3  and  _6
REMARK    4  A    between atoms: _6  and  _7
REMARK    5  A    between atoms: _12  and  _14
REMARK    6  A    between atoms: _14  and  _15
REMARK    7  A    between atoms: _17  and  _19
REMARK    8  A    between atoms: _19  and  _20
REMARK    9  A    between atoms: _19  and  _22
REMARK   10  A    between atoms: _22  and  _23
REMARK   11  A    between atoms: _25  and  _27
REMARK   12  A    between atoms: _27  and  _28
REMARK   13  A    between atoms: _27  and  _30
REMARK   14  A    between atoms: _30  and  _31
REMARK   15  A    between atoms: _31  and  _32
REMARK   16  A    between atoms: _37  and  _39
REMARK   17  A    between atoms: _39  and  _40
REMARK   18  A    between atoms: _39  and  _42
REMARK   19  A    between atoms: _42  and  _43
REMARK   20  A    between atoms: _46  and  _48
REMARK   21  A    between atoms: _48  and  _49
REMARK   22  A    between atoms: _48  and  _51
REMARK   23  A    between atoms: _51  and  _52
REMARK   24  A    between atoms: _52  and  _53
REMARK   25  A    between atoms: _56  and  _58
REMARK   26  A    between atoms: _58  and  _59
REMARK   27  A    between atoms: _61  and  _63
REMARK   28  A    between atoms: _63  and  _64
REMARK   29  A    between atoms: _63  and  _66
REMARK   30  A    between atoms: _70  and  _71
REMARK   31  A    between atoms: _76  and  _78
REMARK   32  A    between atoms: _78  and  _79
REMARK   33  A    between atoms: _78  and  _81
REMARK   34  A    between atoms: _81  and  _82
REMARK   35  A    between atoms: _82  and  _83
REMARK   36  A    between atoms: _86  and  _88
REMARK   37  A    between atoms: _88  and  _89
REMARK   38  A    between atoms: _88  and  _91
REMARK   39  A    between atoms: _91  and  _92
REMARK   40  A    between atoms: _94  and  _96
REMARK   41  A    between atoms: _96  and  _97
REMARK   42  A    between atoms: _96  and  _99
REMARK   43  A    between atoms: _99  and  _100
REMARK   44  A    between atoms: _105  and  _107
REMARK   45  A    between atoms: _107  and  _108
REMARK   46  A    between atoms: _107  and  _110
REMARK   47  A    between atoms: _110  and  _111
REMARK   48  A    between atoms: _111  and  _112
REMARK   49  A    between atoms: _112  and  _113
REMARK   50  A    between atoms: _123  and  _124
REMARK   51  A    between atoms: _129  and  _131
REMARK   52  A    between atoms: _131  and  _132
REMARK   53  A    between atoms: _131  and  _134
REMARK   54  A    between atoms: _134  and  _135
REMARK   55  A    between atoms: _140  and  _141
REMARK   56  A    between atoms: _143  and  _145
REMARK   57  A    between atoms: _145  and  _146
REMARK   58  A    between atoms: _145  and  _148
REMARK   59  A    between atoms: _148  and  _149
REMARK   60  A    between atoms: _154  and  _155
REMARK   61  A    between atoms: _157  and  _159
REMARK   62  A    between atoms: _159  and  _160
REMARK   63  A    between atoms: _159  and  _162
REMARK   64  A    between atoms: _165  and  _167
REMARK   65  A    between atoms: _167  and  _168
REMARK   66  A    between atoms: _167  and  _170
REMARK   67  A    between atoms: _170  and  _171
REMARK   68  A    between atoms: _177  and  _178
REMARK   69  A    between atoms: _183  and  _185
REMARK   70  A    between atoms: _185  and  _186
REMARK   71  A    between atoms: _185  and  _188
REMARK   72  A    between atoms: _188  and  _189
REMARK   73  A    between atoms: _191  and  _193
REMARK   74  A    between atoms: _193  and  _194
REMARK   75  A    between atoms: _193  and  _196
REMARK   76  A    between atoms: _196  and  _197
REMARK   77  A    between atoms: _197  and  _198
REMARK   78  A    between atoms: _201  and  _203
REMARK   79  A    between atoms: _203  and  _204
REMARK   80  A    between atoms: _203  and  _206
REMARK   81  A    between atoms: _206  and  _207
REMARK   82  A    between atoms: _212  and  _213
REMARK   83  A    between atoms: _215  and  _217
REMARK   84  A    between atoms: _217  and  _218
REMARK   85  A    between atoms: _217  and  _220
REMARK   86  A    between atoms: _220  and  _221
REMARK   87  A    between atoms: _226  and  _228
REMARK   88  A    between atoms: _228  and  _229
REMARK   89  A    between atoms: _228  and  _231
REMARK   90  A    between atoms: _231  and  _232
REMARK   91  A    between atoms: _237  and  _239
REMARK   92  A    between atoms: _239  and  _240
REMARK   93  A    between atoms: _239  and  _242
REMARK   94  A    between atoms: _242  and  _243
REMARK   95  A    between atoms: _243  and  _244
REMARK   96  A    between atoms: _246  and  _248
REMARK   97  A    between atoms: _248  and  _249
REMARK   98  A    between atoms: _248  and  _251
REMARK   99  A    between atoms: _251  and  _252
REMARK  100  A    between atoms: _257  and  _258
REMARK  101  A    between atoms: _260  and  _262
REMARK  102  A    between atoms: _262  and  _263
REMARK  103  A    between atoms: _262  and  _265
REMARK  104  A    between atoms: _265  and  _266
REMARK  105  A    between atoms: _269  and  _271
REMARK  106  A    between atoms: _271  and  _272
REMARK  107  A    between atoms: _271  and  _274
REMARK  108  A    between atoms: _274  and  _275
REMARK  109  A    between atoms: _275  and  _492
REMARK  110  A    between atoms: _276  and  _278
REMARK  111  A    between atoms: _278  and  _279
REMARK  112  A    between atoms: _278  and  _281
REMARK  113  A    between atoms: _281  and  _282
REMARK  114  A    between atoms: _285  and  _287
REMARK  115  A    between atoms: _287  and  _288
REMARK  116  A    between atoms: _287  and  _290
REMARK  117  A    between atoms: _290  and  _291
REMARK  118  A    between atoms: _296  and  _297
REMARK  119  A    between atoms: _299  and  _301
REMARK  120  A    between atoms: _301  and  _302
REMARK  121  A    between atoms: _301  and  _304
REMARK  122  A    between atoms: _304  and  _305
REMARK  123  A    between atoms: _310  and  _311
REMARK  124  A    between atoms: _313  and  _315
REMARK  125  A    between atoms: _315  and  _316
REMARK  126  A    between atoms: _315  and  _318
REMARK  127  A    between atoms: _318  and  _319
REMARK  128  A    between atoms: _319  and  _320
REMARK  129  A    between atoms: _323  and  _325
REMARK  130  A    between atoms: _325  and  _326
REMARK  131  A    between atoms: _325  and  _328
REMARK  132  A    between atoms: _328  and  _329
REMARK  133  A    between atoms: _334  and  _335
REMARK  134  A    between atoms: _337  and  _339
REMARK  135  A    between atoms: _339  and  _340
REMARK  136  A    between atoms: _339  and  _342
REMARK  137  A    between atoms: _342  and  _343
REMARK  138  A    between atoms: _348  and  _350
REMARK  139  A    between atoms: _350  and  _351
REMARK  140  A    between atoms: _350  and  _353
REMARK  141  A    between atoms: _353  and  _354
REMARK  142  A    between atoms: _357  and  _359
REMARK  143  A    between atoms: _359  and  _360
REMARK  144  A    between atoms: _359  and  _362
REMARK  145  A    between atoms: _362  and  _363
REMARK  146  A    between atoms: _368  and  _370
REMARK  147  A    between atoms: _370  and  _371
REMARK  148  A    between atoms: _370  and  _373
REMARK  149  A    between atoms: _373  and  _374
REMARK  150  A    between atoms: _384  and  _386
REMARK  151  A    between atoms: _386  and  _387
REMARK  152  A    between atoms: _386  and  _389
REMARK  153  A    between atoms: _389  and  _390
REMARK  154  A    between atoms: _396  and  _398
REMARK  155  A    between atoms: _398  and  _399
REMARK  156  A    between atoms: _398  and  _401
REMARK  157  A    between atoms: _401  and  _402
REMARK  158  A    between atoms: _405  and  _407
REMARK  159  A    between atoms: _407  and  _408
REMARK  160  A    between atoms: _407  and  _410
REMARK  161  A    between atoms: _410  and  _411
REMARK  162  A    between atoms: _414  and  _416
REMARK  163  A    between atoms: _416  and  _417
REMARK  164  A    between atoms: _416  and  _419
REMARK  165  A    between atoms: _419  and  _420
REMARK  166  A    between atoms: _420  and  _421
REMARK  167  A    between atoms: _421  and  _422
REMARK  168  A    between atoms: _431  and  _433
REMARK  169  A    between atoms: _433  and  _434
REMARK  170  A    between atoms: _433  and  _436
REMARK  171  A    between atoms: _436  and  _437
REMARK  172  A    between atoms: _442  and  _444
REMARK  173  A    between atoms: _444  and  _445
REMARK  174  A    between atoms: _444  and  _447
REMARK  175  A    between atoms: _447  and  _448
REMARK  176  A    between atoms: _448  and  _449
REMARK  177  A    between atoms: _449  and  _450
REMARK  178  A    between atoms: _459  and  _461
REMARK  179  A    between atoms: _461  and  _462
REMARK  180  A    between atoms: _465  and  _467
REMARK  181  A    between atoms: _467  and  _468
REMARK  182  A    between atoms: _470  and  _472
REMARK  183  A    between atoms: _472  and  _473
REMARK  184  A    between atoms: _472  and  _475
REMARK  185  A    between atoms: _475  and  _476
REMARK  186  A    between atoms: _486  and  _488
REMARK  187  A    between atoms: _488  and  _489
REMARK  188  A    between atoms: _488  and  _491
REMARK  189  A    between atoms: _491  and  _492
REMARK  190  A    between atoms: _493  and  _495
REMARK  191  A    between atoms: _495  and  _496
REMARK  192  A    between atoms: _499  and  _501
REMARK  193  A    between atoms: _501  and  _502
REMARK  194  A    between atoms: _501  and  _504
REMARK  195  A    between atoms: _504  and  _505
REMARK  196  A    between atoms: _508  and  _510
REMARK  197  A    between atoms: _510  and  _511
REMARK  198  A    between atoms: _510  and  _513
REMARK  199  A    between atoms: _513  and  _514
REMARK  200  A    between atoms: _519  and  _520
REMARK  201  A    between atoms: _522  and  _524
REMARK  202  A    between atoms: _524  and  _525
REMARK  203  A    between atoms: _524  and  _527
REMARK  204  A    between atoms: _527  and  _528
REMARK  205  A    between atoms: _530  and  _532
REMARK  206  A    between atoms: _532  and  _533
REMARK  207  A    between atoms: _532  and  _535
REMARK  208  A    between atoms: _535  and  _536
REMARK  209  A    between atoms: _542  and  _544
REMARK  210  A    between atoms: _544  and  _545
REMARK  211  A    between atoms: _544  and  _547
REMARK  212  A    between atoms: _547  and  _548
REMARK  213  A    between atoms: _551  and  _553
REMARK  214  A    between atoms: _553  and  _554
REMARK  215  A    between atoms: _553  and  _556
REMARK  216  A    between atoms: _556  and  _557
REMARK  217  A    between atoms: _559  and  _561
REMARK  218  A    between atoms: _561  and  _562
REMARK  219  A    between atoms: _561  and  _564
REMARK  220  A    between atoms: _564  and  _565
REMARK  221  A    between atoms: _570  and  _572
REMARK  222  A    between atoms: _572  and  _573
REMARK  223  A    between atoms: _572  and  _575
REMARK  224  A    between atoms: _575  and  _576
REMARK  225  A    between atoms: _581  and  _583
REMARK  226  A    between atoms: _583  and  _584
REMARK  227  A    between atoms: _583  and  _586
REMARK  228  A    between atoms: _586  and  _587
REMARK  229  A    between atoms: _590  and  _592
REMARK  230  A    between atoms: _592  and  _593
REMARK  231  A    between atoms: _592  and  _595
REMARK  232  A    between atoms: _595  and  _596
REMARK  233  A    between atoms: _601  and  _602
REMARK  234  A    between atoms: _604  and  _606
REMARK  235  A    between atoms: _606  and  _607
REMARK  236  A    between atoms: _606  and  _609
REMARK  237  A    between atoms: _609  and  _610
REMARK  238  A    between atoms: _615  and  _616
REMARK  239  A    between atoms: _618  and  _620
REMARK  240  A    between atoms: _620  and  _621
REMARK  241  A    between atoms: _620  and  _623
REMARK  242  A    between atoms: _626  and  _628
REMARK  243  A    between atoms: _628  and  _629
REMARK  244  A    between atoms: _628  and  _631
REMARK  245  A    between atoms: _631  and  _632
REMARK  246  A    between atoms: _637  and  _639
REMARK  247  A    between atoms: _639  and  _640
REMARK  248  A    between atoms: _643  and  _645
REMARK  249  A    between atoms: _645  and  _646
REMARK  250  A    between atoms: _645  and  _648
REMARK  251  A    between atoms: _648  and  _649
REMARK  252  A    between atoms: _649  and  _650
REMARK  253  A    between atoms: _650  and  _651
REMARK  254  A    between atoms: _660  and  _662
REMARK  255  A    between atoms: _662  and  _663
REMARK  256  A    between atoms: _662  and  _665
REMARK  257  A    between atoms: _665  and  _666
REMARK  258  A    between atoms: _669  and  _671
REMARK  259  A    between atoms: _671  and  _672
REMARK  260  A    between atoms: _671  and  _674
REMARK  261  A    between atoms: _674  and  _675
REMARK  262  A    between atoms: _678  and  _680
REMARK  263  A    between atoms: _680  and  _681
REMARK  264  A    between atoms: _680  and  _683
REMARK  265  A    between atoms: _683  and  _684
REMARK                            x       y       z     vdW  Elec       q    Type
REMARK                         _______ _______ _______ _____ _____    ______ ____
ROOT
ATOM      1  O   HOH     1       6.067  20.349  21.138  0.00  0.00    +0.000 OA
ENDROOT
TORSDOF 0
REMARK  Name = ../refined-set-2016/1b9j/1b9j_pocket.pdb
REMARK  265 active torsions:
REMARK  status: ('A' for Active; 'I' for Inactive)
REMARK    1  A    between atoms: _1  and  _3
REMARK    2  A    between atoms: _3  and  _4
REMARK    3  A    between atoms: _3  and  _6
REMARK    4  A    between atoms: _6  and  _7
REMARK    5  A    between atoms: _12  and  _14
REMARK    6  A    between atoms: _14  and  _15
REMARK    7  A    between atoms: _17  and  _19
REMARK    8  A    between atoms: _19  and  _20
REMARK    9  A    between atoms: _19  and  _22
REMARK   10  A    between atoms: _22  and  _23
REMARK   11  A    between atoms: _25  and  _27
REMARK   12  A    between atoms: _27  and  _28
REMARK   13  A    between atoms: _27  and  _30
REMARK   14  A    between atoms: _30  and  _31
REMARK   15  A    between atoms: _31  and  _32
REMARK   16  A    between atoms: _37  and  _39
REMARK   17  A    between atoms: _39  and  _40
REMARK   18  A    between atoms: _39  and  _42
REMARK   19  A    between atoms: _42  and  _43
REMARK   20  A    between atoms: _46  and  _48
REMARK   21  A    between atoms: _48  and  _49
REMARK   22  A    between atoms: _48  and  _51
REMARK   23  A    between atoms: _51  and  _52
REMARK   24  A    between atoms: _52  and  _53
REMARK   25  A    between atoms: _56  and  _58
REMARK   26  A    between atoms: _58  and  _59
REMARK   27  A    between atoms: _61  and  _63
REMARK   28  A    between atoms: _63  and  _64
REMARK   29  A    between atoms: _63  and  _66
REMARK   30  A    between atoms: _70  and  _71
REMARK   31  A    between atoms: _76  and  _78
REMARK   32  A    between atoms: _78  and  _79
REMARK   33  A    between atoms: _78  and  _81
REMARK   34  A    between atoms: _81  and  _82
REMARK   35  A    between atoms: _82  and  _83
REMARK   36  A    between atoms: _86  and  _88
REMARK   37  A    between atoms: _88  and  _89
REMARK   38  A    between atoms: _88  and  _91
REMARK   39  A    between atoms: _91  and  _92
REMARK   40  A    between atoms: _94  and  _96
REMARK   41  A    between atoms: _96  and  _97
REMARK   42  A    between atoms: _96  and  _99
REMARK   43  A    between atoms: _99  and  _100
REMARK   44  A    between atoms: _105  and  _107
REMARK   45  A    between atoms: _107  and  _108
REMARK   46  A    between atoms: _107  and  _110
REMARK   47  A    between atoms: _110  and  _111
REMARK   48  A    between atoms: _111  and  _112
REMARK   49  A    between atoms: _112  and  _113
REMARK   50  A    between atoms: _123  and  _124
REMARK   51  A    between atoms: _129  and  _131
REMARK   52  A    between atoms: _131  and  _132
REMARK   53  A    between atoms: _131  and  _134
REMARK   54  A    between atoms: _134  and  _135
REMARK   55  A    between atoms: _140  and  _141
REMARK   56  A    between atoms: _143  and  _145
REMARK   57  A    between atoms: _145  and  _146
REMARK   58  A    between atoms: _145  and  _148
REMARK   59  A    between atoms: _148  and  _149
REMARK   60  A    between atoms: _154  and  _155
REMARK   61  A    between atoms: _157  and  _159
REMARK   62  A    between atoms: _159  and  _160
REMARK   63  A    between atoms: _159  and  _162
REMARK   64  A    between atoms: _165  and  _167
REMARK   65  A    between atoms: _167  and  _168
REMARK   66  A    between atoms: _167  and  _170
REMARK   67  A    between atoms: _170  and  _171
REMARK   68  A    between atoms: _177  and  _178
REMARK   69  A    between atoms: _183  and  _185
REMARK   70  A    between atoms: _185  and  _186
REMARK   71  A    between atoms: _185  and  _188
REMARK   72  A    between atoms: _188  and  _189
REMARK   73  A    between atoms: _191  and  _193
REMARK   74  A    between atoms: _193  and  _194
REMARK   75  A    between atoms: _193  and  _196
REMARK   76  A    between atoms: _196  and  _197
REMARK   77  A    between atoms: _197  and  _198
REMARK   78  A    between atoms: _201  and  _203
REMARK   79  A    between atoms: _203  and  _204
REMARK   80  A    between atoms: _203  and  _206
REMARK   81  A    between atoms: _206  and  _207
REMARK   82  A    between atoms: _212  and  _213
REMARK   83  A    between atoms: _215  and  _217
REMARK   84  A    between atoms: _217  and  _218
REMARK   85  A    between atoms: _217  and  _220
REMARK   86  A    between atoms: _220  and  _221
REMARK   87  A    between atoms: _226  and  _228
REMARK   88  A    between atoms: _228  and  _229
REMARK   89  A    between atoms: _228  and  _231
REMARK   90  A    between atoms: _231  and  _232
REMARK   91  A    between atoms: _237  and  _239
REMARK   92  A    between atoms: _239  and  _240
REMARK   93  A    between atoms: _239  and  _242
REMARK   94  A    between atoms: _242  and  _243
REMARK   95  A    between atoms: _243  and  _244
REMARK   96  A    between atoms: _246  and  _248
REMARK   97  A    between atoms: _248  and  _249
REMARK   98  A    between atoms: _248  and  _251
REMARK   99  A    between atoms: _251  and  _252
REMARK  100  A    between atoms: _257  and  _258
REMARK  101  A    between atoms: _260  and  _262
REMARK  102  A    between atoms: _262  and  _263
REMARK  103  A    between atoms: _262  and  _265
REMARK  104  A    between atoms: _265  and  _266
REMARK  105  A    between atoms: _269  and  _271
REMARK  106  A    between atoms: _271  and  _272
REMARK  107  A    between atoms: _271  and  _274
REMARK  108  A    between atoms: _274  and  _275
REMARK  109  A    between atoms: _275  and  _492
REMARK  110  A    between atoms: _276  and  _278
REMARK  111  A    between atoms: _278  and  _279
REMARK  112  A    between atoms: _278  and  _281
REMARK  113  A    between atoms: _281  and  _282
REMARK  114  A    between atoms: _285  and  _287
REMARK  115  A    between atoms: _287  and  _288
REMARK  116  A    between atoms: _287  and  _290
REMARK  117  A    between atoms: _290  and  _291
REMARK  118  A    between atoms: _296  and  _297
REMARK  119  A    between atoms: _299  and  _301
REMARK  120  A    between atoms: _301  and  _302
REMARK  121  A    between atoms: _301  and  _304
REMARK  122  A    between atoms: _304  and  _305
REMARK  123  A    between atoms: _310  and  _311
REMARK  124  A    between atoms: _313  and  _315
REMARK  125  A    between atoms: _315  and  _316
REMARK  126  A    between atoms: _315  and  _318
REMARK  127  A    between atoms: _318  and  _319
REMARK  128  A    between atoms: _319  and  _320
REMARK  129  A    between atoms: _323  and  _325
REMARK  130  A    between atoms: _325  and  _326
REMARK  131  A    between atoms: _325  and  _328
REMARK  132  A    between atoms: _328  and  _329
REMARK  133  A    between atoms: _334  and  _335
REMARK  134  A    between atoms: _337  and  _339
REMARK  135  A    between atoms: _339  and  _340
REMARK  136  A    between atoms: _339  and  _342
REMARK  137  A    between atoms: _342  and  _343
REMARK  138  A    between atoms: _348  and  _350
REMARK  139  A    between atoms: _350  and  _351
REMARK  140  A    between atoms: _350  and  _353
REMARK  141  A    between atoms: _353  and  _354
REMARK  142  A    between atoms: _357  and  _359
REMARK  143  A    between atoms: _359  and  _360
REMARK  144  A    between atoms: _359  and  _362
REMARK  145  A    between atoms: _362  and  _363
REMARK  146  A    between atoms: _368  and  _370
REMARK  147  A    between atoms: _370  and  _371
REMARK  148  A    between atoms: _370  and  _373
REMARK  149  A    between atoms: _373  and  _374
REMARK  150  A    between atoms: _384  and  _386
REMARK  151  A    between atoms: _386  and  _387
REMARK  152  A    between atoms: _386  and  _389
REMARK  153  A    between atoms: _389  and  _390
REMARK  154  A    between atoms: _396  and  _398
REMARK  155  A    between atoms: _398  and  _399
REMARK  156  A    between atoms: _398  and  _401
REMARK  157  A    between atoms: _401  and  _402
REMARK  158  A    between atoms: _405  and  _407
REMARK  159  A    between atoms: _407  and  _408
REMARK  160  A    between atoms: _407  and  _410
REMARK  161  A    between atoms: _410  and  _411
REMARK  162  A    between atoms: _414  and  _416
REMARK  163  A    between atoms: _416  and  _417
REMARK  164  A    between atoms: _416  and  _419
REMARK  165  A    between atoms: _419  and  _420
REMARK  166  A    between atoms: _420  and  _421
REMARK  167  A    between atoms: _421  and  _422
REMARK  168  A    between atoms: _431  and  _433
REMARK  169  A    between atoms: _433  and  _434
REMARK  170  A    between atoms: _433  and  _436
REMARK  171  A    between atoms: _436  and  _437
REMARK  172  A    between atoms: _442  and  _444
REMARK  173  A    between atoms: _444  and  _445
REMARK  174  A    between atoms: _444  and  _447
REMARK  175  A    between atoms: _447  and  _448
REMARK  176  A    between atoms: _448  and  _449
REMARK  177  A    between atoms: _449  and  _450
REMARK  178  A    between atoms: _459  and  _461
REMARK  179  A    between atoms: _461  and  _462
REMARK  180  A    between atoms: _465  and  _467
REMARK  181  A    between atoms: _467  and  _468
REMARK  182  A    between atoms: _470  and  _472
REMARK  183  A    between atoms: _472  and  _473
REMARK  184  A    between atoms: _472  and  _475
REMARK  185  A    between atoms: _475  and  _476
REMARK  186  A    between atoms: _486  and  _488
REMARK  187  A    between atoms: _488  and  _489
REMARK  188  A    between atoms: _488  and  _491
REMARK  189  A    between atoms: _491  and  _492
REMARK  190  A    between atoms: _493  and  _495
REMARK  191  A    between atoms: _495  and  _496
REMARK  192  A    between atoms: _499  and  _501
REMARK  193  A    between atoms: _501  and  _502
REMARK  194  A    between atoms: _501  and  _504
REMARK  195  A    between atoms: _504  and  _505
REMARK  196  A    between atoms: _508  and  _510
REMARK  197  A    between atoms: _510  and  _511
REMARK  198  A    between atoms: _510  and  _513
REMARK  199  A    between atoms: _513  and  _514
REMARK  200  A    between atoms: _519  and  _520
REMARK  201  A    between atoms: _522  and  _524
REMARK  202  A    between atoms: _524  and  _525
REMARK  203  A    between atoms: _524  and  _527
REMARK  204  A    between atoms: _527  and  _528
REMARK  205  A    between atoms: _530  and  _532
REMARK  206  A    between atoms: _532  and  _533
REMARK  207  A    between atoms: _532  and  _535
REMARK  208  A    between atoms: _535  and  _536
REMARK  209  A    between atoms: _542  and  _544
REMARK  210  A    between atoms: _544  and  _545
REMARK  211  A    between atoms: _544  and  _547
REMARK  212  A    between atoms: _547  and  _548
REMARK  213  A    between atoms: _551  and  _553
REMARK  214  A    between atoms: _553  and  _554
REMARK  215  A    between atoms: _553  and  _556
REMARK  216  A    between atoms: _556  and  _557
REMARK  217  A    between atoms: _559  and  _561
REMARK  218  A    between atoms: _561  and  _562
REMARK  219  A    between atoms: _561  and  _564
REMARK  220  A    between atoms: _564  and  _565
REMARK  221  A    between atoms: _570  and  _572
REMARK  222  A    between atoms: _572  and  _573
REMARK  223  A    between atoms: _572  and  _575
REMARK  224  A    between atoms: _575  and  _576
REMARK  225  A    between atoms: _581  and  _583
REMARK  226  A    between atoms: _583  and  _584
REMARK  227  A    between atoms: _583  and  _586
REMARK  228  A    between atoms: _586  and  _587
REMARK  229  A    between atoms: _590  and  _592
REMARK  230  A    between atoms: _592  and  _593
REMARK  231  A    between atoms: _592  and  _595
REMARK  232  A    between atoms: _595  and  _596
REMARK  233  A    between atoms: _601  and  _602
REMARK  234  A    between atoms: _604  and  _606
REMARK  235  A    between atoms: _606  and  _607
REMARK  236  A    between atoms: _606  and  _609
REMARK  237  A    between atoms: _609  and  _610
REMARK  238  A    between atoms: _615  and  _616
REMARK  239  A    between atoms: _618  and  _620
REMARK  240  A    between atoms: _620  and  _621
REMARK  241  A    between atoms: _620  and  _623
REMARK  242  A    between atoms: _626  and  _628
REMARK  243  A    between atoms: _628  and  _629
REMARK  244  A    between atoms: _628  and  _631
REMARK  245  A    between atoms: _631  and  _632
REMARK  246  A    between atoms: _637  and  _639
REMARK  247  A    between atoms: _639  and  _640
REMARK  248  A    between atoms: _643  and  _645
REMARK  249  A    between atoms: _645  and  _646
REMARK  250  A    between atoms: _645  and  _648
REMARK  251  A    between atoms: _648  and  _649
REMARK  252  A    between atoms: _649  and  _650
REMARK  253  A    between atoms: _650  and  _651
REMARK  254  A    between atoms: _660  and  _662
REMARK  255  A    between atoms: _662  and  _663
REMARK  256  A    between atoms: _662  and  _665
REMARK  257  A    between atoms: _665  and  _666
REMARK  258  A    between atoms: _669  and  _671
REMARK  259  A    between atoms: _671  and  _672
REMARK  260  A    between atoms: _671  and  _674
REMARK  261  A    between atoms: _674  and  _675
REMARK  262  A    between atoms: _678  and  _680
REMARK  263  A    between atoms: _680  and  _681
REMARK  264  A    between atoms: _680  and  _683
REMARK  265  A    between atoms: _683  and  _684
REMARK                            x       y       z     vdW  Elec       q    Type
REMARK                         _______ _______ _______ _____ _____    ______ ____
ROOT
ATOM      1  O   HOH     1       7.798  15.513   6.634  0.00  0.00    +0.000 OA
ENDROOT
TORSDOF 0
REMARK  Name = ../refined-set-2016/1b9j/1b9j_pocket.pdb
REMARK  265 active torsions:
REMARK  status: ('A' for Active; 'I' for Inactive)
REMARK    1  A    between atoms: _1  and  _3
REMARK    2  A    between atoms: _3  and  _4
REMARK    3  A    between atoms: _3  and  _6
REMARK    4  A    between atoms: _6  and  _7
REMARK    5  A    between atoms: _12  and  _14
REMARK    6  A    between atoms: _14  and  _15
REMARK    7  A    between atoms: _17  and  _19
REMARK    8  A    between atoms: _19  and  _20
REMARK    9  A    between atoms: _19  and  _22
REMARK   10  A    between atoms: _22  and  _23
REMARK   11  A    between atoms: _25  and  _27
REMARK   12  A    between atoms: _27  and  _28
REMARK   13  A    between atoms: _27  and  _30
REMARK   14  A    between atoms: _30  and  _31
REMARK   15  A    between atoms: _31  and  _32
REMARK   16  A    between atoms: _37  and  _39
REMARK   17  A    between atoms: _39  and  _40
REMARK   18  A    between atoms: _39  and  _42
REMARK   19  A    between atoms: _42  and  _43
REMARK   20  A    between atoms: _46  and  _48
REMARK   21  A    between atoms: _48  and  _49
REMARK   22  A    between atoms: _48  and  _51
REMARK   23  A    between atoms: _51  and  _52
REMARK   24  A    between atoms: _52  and  _53
REMARK   25  A    between atoms: _56  and  _58
REMARK   26  A    between atoms: _58  and  _59
REMARK   27  A    between atoms: _61  and  _63
REMARK   28  A    between atoms: _63  and  _64
REMARK   29  A    between atoms: _63  and  _66
REMARK   30  A    between atoms: _70  and  _71
REMARK   31  A    between atoms: _76  and  _78
REMARK   32  A    between atoms: _78  and  _79
REMARK   33  A    between atoms: _78  and  _81
REMARK   34  A    between atoms: _81  and  _82
REMARK   35  A    between atoms: _82  and  _83
REMARK   36  A    between atoms: _86  and  _88
REMARK   37  A    between atoms: _88  and  _89
REMARK   38  A    between atoms: _88  and  _91
REMARK   39  A    between atoms: _91  and  _92
REMARK   40  A    between atoms: _94  and  _96
REMARK   41  A    between atoms: _96  and  _97
REMARK   42  A    between atoms: _96  and  _99
REMARK   43  A    between atoms: _99  and  _100
REMARK   44  A    between atoms: _105  and  _107
REMARK   45  A    between atoms: _107  and  _108
REMARK   46  A    between atoms: _107  and  _110
REMARK   47  A    between atoms: _110  and  _111
REMARK   48  A    between atoms: _111  and  _112
REMARK   49  A    between atoms: _112  and  _113
REMARK   50  A    between atoms: _123  and  _124
REMARK   51  A    between atoms: _129  and  _131
REMARK   52  A    between atoms: _131  and  _132
REMARK   53  A    between atoms: _131  and  _134
REMARK   54  A    between atoms: _134  and  _135
REMARK   55  A    between atoms: _140  and  _141
REMARK   56  A    between atoms: _143  and  _145
REMARK   57  A    between atoms: _145  and  _146
REMARK   58  A    between atoms: _145  and  _148
REMARK   59  A    between atoms: _148  and  _149
REMARK   60  A    between atoms: _154  and  _155
REMARK   61  A    between atoms: _157  and  _159
REMARK   62  A    between atoms: _159  and  _160
REMARK   63  A    between atoms: _159  and  _162
REMARK   64  A    between atoms: _165  and  _167
REMARK   65  A    between atoms: _167  and  _168
REMARK   66  A    between atoms: _167  and  _170
REMARK   67  A    between atoms: _170  and  _171
REMARK   68  A    between atoms: _177  and  _178
REMARK   69  A    between atoms: _183  and  _185
REMARK   70  A    between atoms: _185  and  _186
REMARK   71  A    between atoms: _185  and  _188
REMARK   72  A    between atoms: _188  and  _189
REMARK   73  A    between atoms: _191  and  _193
REMARK   74  A    between atoms: _193  and  _194
REMARK   75  A    between atoms: _193  and  _196
REMARK   76  A    between atoms: _196  and  _197
REMARK   77  A    between atoms: _197  and  _198
REMARK   78  A    between atoms: _201  and  _203
REMARK   79  A    between atoms: _203  and  _204
REMARK   80  A    between atoms: _203  and  _206
REMARK   81  A    between atoms: _206  and  _207
REMARK   82  A    between atoms: _212  and  _213
REMARK   83  A    between atoms: _215  and  _217
REMARK   84  A    between atoms: _217  and  _218
REMARK   85  A    between atoms: _217  and  _220
REMARK   86  A    between atoms: _220  and  _221
REMARK   87  A    between atoms: _226  and  _228
REMARK   88  A    between atoms: _228  and  _229
REMARK   89  A    between atoms: _228  and  _231
REMARK   90  A    between atoms: _231  and  _232
REMARK   91  A    between atoms: _237  and  _239
REMARK   92  A    between atoms: _239  and  _240
REMARK   93  A    between atoms: _239  and  _242
REMARK   94  A    between atoms: _242  and  _243
REMARK   95  A    between atoms: _243  and  _244
REMARK   96  A    between atoms: _246  and  _248
REMARK   97  A    between atoms: _248  and  _249
REMARK   98  A    between atoms: _248  and  _251
REMARK   99  A    between atoms: _251  and  _252
REMARK  100  A    between atoms: _257  and  _258
REMARK  101  A    between atoms: _260  and  _262
REMARK  102  A    between atoms: _262  and  _263
REMARK  103  A    between atoms: _262  and  _265
REMARK  104  A    between atoms: _265  and  _266
REMARK  105  A    between atoms: _269  and  _271
REMARK  106  A    between atoms: _271  and  _272
REMARK  107  A    between atoms: _271  and  _274
REMARK  108  A    between atoms: _274  and  _275
REMARK  109  A    between atoms: _275  and  _492
REMARK  110  A    between atoms: _276  and  _278
REMARK  111  A    between atoms: _278  and  _279
REMARK  112  A    between atoms: _278  and  _281
REMARK  113  A    between atoms: _281  and  _282
REMARK  114  A    between atoms: _285  and  _287
REMARK  115  A    between atoms: _287  and  _288
REMARK  116  A    between atoms: _287  and  _290
REMARK  117  A    between atoms: _290  and  _291
REMARK  118  A    between atoms: _296  and  _297
REMARK  119  A    between atoms: _299  and  _301
REMARK  120  A    between atoms: _301  and  _302
REMARK  121  A    between atoms: _301  and  _304
REMARK  122  A    between atoms: _304  and  _305
REMARK  123  A    between atoms: _310  and  _311
REMARK  124  A    between atoms: _313  and  _315
REMARK  125  A    between atoms: _315  and  _316
REMARK  126  A    between atoms: _315  and  _318
REMARK  127  A    between atoms: _318  and  _319
REMARK  128  A    between atoms: _319  and  _320
REMARK  129  A    between atoms: _323  and  _325
REMARK  130  A    between atoms: _325  and  _326
REMARK  131  A    between atoms: _325  and  _328
REMARK  132  A    between atoms: _328  and  _329
REMARK  133  A    between atoms: _334  and  _335
REMARK  134  A    between atoms: _337  and  _339
REMARK  135  A    between atoms: _339  and  _340
REMARK  136  A    between atoms: _339  and  _342
REMARK  137  A    between atoms: _342  and  _343
REMARK  138  A    between atoms: _348  and  _350
REMARK  139  A    between atoms: _350  and  _351
REMARK  140  A    between atoms: _350  and  _353
REMARK  141  A    between atoms: _353  and  _354
REMARK  142  A    between atoms: _357  and  _359
REMARK  143  A    between atoms: _359  and  _360
REMARK  144  A    between atoms: _359  and  _362
REMARK  145  A    between atoms: _362  and  _363
REMARK  146  A    between atoms: _368  and  _370
REMARK  147  A    between atoms: _370  and  _371
REMARK  148  A    between atoms: _370  and  _373
REMARK  149  A    between atoms: _373  and  _374
REMARK  150  A    between atoms: _384  and  _386
REMARK  151  A    between atoms: _386  and  _387
REMARK  152  A    between atoms: _386  and  _389
REMARK  153  A    between atoms: _389  and  _390
REMARK  154  A    between atoms: _396  and  _398
REMARK  155  A    between atoms: _398  and  _399
REMARK  156  A    between atoms: _398  and  _401
REMARK  157  A    between atoms: _401  and  _402
REMARK  158  A    between atoms: _405  and  _407
REMARK  159  A    between atoms: _407  and  _408
REMARK  160  A    between atoms: _407  and  _410
REMARK  161  A    between atoms: _410  and  _411
REMARK  162  A    between atoms: _414  and  _416
REMARK  163  A    between atoms: _416  and  _417
REMARK  164  A    between atoms: _416  and  _419
REMARK  165  A    between atoms: _419  and  _420
REMARK  166  A    between atoms: _420  and  _421
REMARK  167  A    between atoms: _421  and  _422
REMARK  168  A    between atoms: _431  and  _433
REMARK  169  A    between atoms: _433  and  _434
REMARK  170  A    between atoms: _433  and  _436
REMARK  171  A    between atoms: _436  and  _437
REMARK  172  A    between atoms: _442  and  _444
REMARK  173  A    between atoms: _444  and  _445
REMARK  174  A    between atoms: _444  and  _447
REMARK  175  A    between atoms: _447  and  _448
REMARK  176  A    between atoms: _448  and  _449
REMARK  177  A    between atoms: _449  and  _450
REMARK  178  A    between atoms: _459  and  _461
REMARK  179  A    between atoms: _461  and  _462
REMARK  180  A    between atoms: _465  and  _467
REMARK  181  A    between atoms: _467  and  _468
REMARK  182  A    between atoms: _470  and  _472
REMARK  183  A    between atoms: _472  and  _473
REMARK  184  A    between atoms: _472  and  _475
REMARK  185  A    between atoms: _475  and  _476
REMARK  186  A    between atoms: _486  and  _488
REMARK  187  A    between atoms: _488  and  _489
REMARK  188  A    between atoms: _488  and  _491
REMARK  189  A    between atoms: _491  and  _492
REMARK  190  A    between atoms: _493  and  _495
REMARK  191  A    between atoms: _495  and  _496
REMARK  192  A    between atoms: _499  and  _501
REMARK  193  A    between atoms: _501  and  _502
REMARK  194  A    between atoms: _501  and  _504
REMARK  195  A    between atoms: _504  and  _505
REMARK  196  A    between atoms: _508  and  _510
REMARK  197  A    between atoms: _510  and  _511
REMARK  198  A    between atoms: _510  and  _513
REMARK  199  A    between atoms: _513  and  _514
REMARK  200  A    between atoms: _519  and  _520
REMARK  201  A    between atoms: _522  and  _524
REMARK  202  A    between atoms: _524  and  _525
REMARK  203  A    between atoms: _524  and  _527
REMARK  204  A    between atoms: _527  and  _528
REMARK  205  A    between atoms: _530  and  _532
REMARK  206  A    between atoms: _532  and  _533
REMARK  207  A    between atoms: _532  and  _535
REMARK  208  A    between atoms: _535  and  _536
REMARK  209  A    between atoms: _542  and  _544
REMARK  210  A    between atoms: _544  and  _545
REMARK  211  A    between atoms: _544  and  _547
REMARK  212  A    between atoms: _547  and  _548
REMARK  213  A    between atoms: _551  and  _553
REMARK  214  A    between atoms: _553  and  _554
REMARK  215  A    between atoms: _553  and  _556
REMARK  216  A    between atoms: _556  and  _557
REMARK  217  A    between atoms: _559  and  _561
REMARK  218  A    between atoms: _561  and  _562
REMARK  219  A    between atoms: _561  and  _564
REMARK  220  A    between atoms: _564  and  _565
REMARK  221  A    between atoms: _570  and  _572
REMARK  222  A    between atoms: _572  and  _573
REMARK  223  A    between atoms: _572  and  _575
REMARK  224  A    between atoms: _575  and  _576
REMARK  225  A    between atoms: _581  and  _583
REMARK  226  A    between atoms: _583  and  _584
REMARK  227  A    between atoms: _583  and  _586
REMARK  228  A    between atoms: _586  and  _587
REMARK  229  A    between atoms: _590  and  _592
REMARK  230  A    between atoms: _592  and  _593
REMARK  231  A    between atoms: _592  and  _595
REMARK  232  A    between atoms: _595  and  _596
REMARK  233  A    between atoms: _601  and  _602
REMARK  234  A    between atoms: _604  and  _606
REMARK  235  A    between atoms: _606  and  _607
REMARK  236  A    between atoms: _606  and  _609
REMARK  237  A    between atoms: _609  and  _610
REMARK  238  A    between atoms: _615  and  _616
REMARK  239  A    between atoms: _618  and  _620
REMARK  240  A    between atoms: _620  and  _621
REMARK  241  A    between atoms: _620  and  _623
REMARK  242  A    between atoms: _626  and  _628
REMARK  243  A    between atoms: _628  and  _629
REMARK  244  A    between atoms: _628  and  _631
REMARK  245  A    between atoms: _631  and  _632
REMARK  246  A    between atoms: _637  and  _639
REMARK  247  A    between atoms: _639  and  _640
REMARK  248  A    between atoms: _643  and  _645
REMARK  249  A    between atoms: _645  and  _646
REMARK  250  A    between atoms: _645  and  _648
REMARK  251  A    between atoms: _648  and  _649
REMARK  252  A    between atoms: _649  and  _650
REMARK  253  A    between atoms: _650  and  _651
REMARK  254  A    between atoms: _660  and  _662
REMARK  255  A    between atoms: _662  and  _663
REMARK  256  A    between atoms: _662  and  _665
REMARK  257  A    between atoms: _665  and  _666
REMARK  258  A    between atoms: _669  and  _671
REMARK  259  A    between atoms: _671  and  _672
REMARK  260  A    between atoms: _671  and  _674
REMARK  261  A    between atoms: _674  and  _675
REMARK  262  A    between atoms: _678  and  _680
REMARK  263  A    between atoms: _680  and  _681
REMARK  264  A    between atoms: _680  and  _683
REMARK  265  A    between atoms: _683  and  _684
REMARK                            x       y       z     vdW  Elec       q    Type
REMARK                         _______ _______ _______ _____ _____    ______ ____
ROOT
ATOM      1  O   HOH     1       7.935  22.146  20.758  0.00  0.00    +0.000 OA
ENDROOT
TORSDOF 0
REMARK  Name = ../refined-set-2016/1b9j/1b9j_pocket.pdb
REMARK  265 active torsions:
REMARK  status: ('A' for Active; 'I' for Inactive)
REMARK    1  A    between atoms: _1  and  _3
REMARK    2  A    between atoms: _3  and  _4
REMARK    3  A    between atoms: _3  and  _6
REMARK    4  A    between atoms: _6  and  _7
REMARK    5  A    between atoms: _12  and  _14
REMARK    6  A    between atoms: _14  and  _15
REMARK    7  A    between atoms: _17  and  _19
REMARK    8  A    between atoms: _19  and  _20
REMARK    9  A    between atoms: _19  and  _22
REMARK   10  A    between atoms: _22  and  _23
REMARK   11  A    between atoms: _25  and  _27
REMARK   12  A    between atoms: _27  and  _28
REMARK   13  A    between atoms: _27  and  _30
REMARK   14  A    between atoms: _30  and  _31
REMARK   15  A    between atoms: _31  and  _32
REMARK   16  A    between atoms: _37  and  _39
REMARK   17  A    between atoms: _39  and  _40
REMARK   18  A    between atoms: _39  and  _42
REMARK   19  A    between atoms: _42  and  _43
REMARK   20  A    between atoms: _46  and  _48
REMARK   21  A    between atoms: _48  and  _49
REMARK   22  A    between atoms: _48  and  _51
REMARK   23  A    between atoms: _51  and  _52
REMARK   24  A    between atoms: _52  and  _53
REMARK   25  A    between atoms: _56  and  _58
REMARK   26  A    between atoms: _58  and  _59
REMARK   27  A    between atoms: _61  and  _63
REMARK   28  A    between atoms: _63  and  _64
REMARK   29  A    between atoms: _63  and  _66
REMARK   30  A    between atoms: _70  and  _71
REMARK   31  A    between atoms: _76  and  _78
REMARK   32  A    between atoms: _78  and  _79
REMARK   33  A    between atoms: _78  and  _81
REMARK   34  A    between atoms: _81  and  _82
REMARK   35  A    between atoms: _82  and  _83
REMARK   36  A    between atoms: _86  and  _88
REMARK   37  A    between atoms: _88  and  _89
REMARK   38  A    between atoms: _88  and  _91
REMARK   39  A    between atoms: _91  and  _92
REMARK   40  A    between atoms: _94  and  _96
REMARK   41  A    between atoms: _96  and  _97
REMARK   42  A    between atoms: _96  and  _99
REMARK   43  A    between atoms: _99  and  _100
REMARK   44  A    between atoms: _105  and  _107
REMARK   45  A    between atoms: _107  and  _108
REMARK   46  A    between atoms: _107  and  _110
REMARK   47  A    between atoms: _110  and  _111
REMARK   48  A    between atoms: _111  and  _112
REMARK   49  A    between atoms: _112  and  _113
REMARK   50  A    between atoms: _123  and  _124
REMARK   51  A    between atoms: _129  and  _131
REMARK   52  A    between atoms: _131  and  _132
REMARK   53  A    between atoms: _131  and  _134
REMARK   54  A    between atoms: _134  and  _135
REMARK   55  A    between atoms: _140  and  _141
REMARK   56  A    between atoms: _143  and  _145
REMARK   57  A    between atoms: _145  and  _146
REMARK   58  A    between atoms: _145  and  _148
REMARK   59  A    between atoms: _148  and  _149
REMARK   60  A    between atoms: _154  and  _155
REMARK   61  A    between atoms: _157  and  _159
REMARK   62  A    between atoms: _159  and  _160
REMARK   63  A    between atoms: _159  and  _162
REMARK   64  A    between atoms: _165  and  _167
REMARK   65  A    between atoms: _167  and  _168
REMARK   66  A    between atoms: _167  and  _170
REMARK   67  A    between atoms: _170  and  _171
REMARK   68  A    between atoms: _177  and  _178
REMARK   69  A    between atoms: _183  and  _185
REMARK   70  A    between atoms: _185  and  _186
REMARK   71  A    between atoms: _185  and  _188
REMARK   72  A    between atoms: _188  and  _189
REMARK   73  A    between atoms: _191  and  _193
REMARK   74  A    between atoms: _193  and  _194
REMARK   75  A    between atoms: _193  and  _196
REMARK   76  A    between atoms: _196  and  _197
REMARK   77  A    between atoms: _197  and  _198
REMARK   78  A    between atoms: _201  and  _203
REMARK   79  A    between atoms: _203  and  _204
REMARK   80  A    between atoms: _203  and  _206
REMARK   81  A    between atoms: _206  and  _207
REMARK   82  A    between atoms: _212  and  _213
REMARK   83  A    between atoms: _215  and  _217
REMARK   84  A    between atoms: _217  and  _218
REMARK   85  A    between atoms: _217  and  _220
REMARK   86  A    between atoms: _220  and  _221
REMARK   87  A    between atoms: _226  and  _228
REMARK   88  A    between atoms: _228  and  _229
REMARK   89  A    between atoms: _228  and  _231
REMARK   90  A    between atoms: _231  and  _232
REMARK   91  A    between atoms: _237  and  _239
REMARK   92  A    between atoms: _239  and  _240
REMARK   93  A    between atoms: _239  and  _242
REMARK   94  A    between atoms: _242  and  _243
REMARK   95  A    between atoms: _243  and  _244
REMARK   96  A    between atoms: _246  and  _248
REMARK   97  A    between atoms: _248  and  _249
REMARK   98  A    between atoms: _248  and  _251
REMARK   99  A    between atoms: _251  and  _252
REMARK  100  A    between atoms: _257  and  _258
REMARK  101  A    between atoms: _260  and  _262
REMARK  102  A    between atoms: _262  and  _263
REMARK  103  A    between atoms: _262  and  _265
REMARK  104  A    between atoms: _265  and  _266
REMARK  105  A    between atoms: _269  and  _271
REMARK  106  A    between atoms: _271  and  _272
REMARK  107  A    between atoms: _271  and  _274
REMARK  108  A    between atoms: _274  and  _275
REMARK  109  A    between atoms: _275  and  _492
REMARK  110  A    between atoms: _276  and  _278
REMARK  111  A    between atoms: _278  and  _279
REMARK  112  A    between atoms: _278  and  _281
REMARK  113  A    between atoms: _281  and  _282
REMARK  114  A    between atoms: _285  and  _287
REMARK  115  A    between atoms: _287  and  _288
REMARK  116  A    between atoms: _287  and  _290
REMARK  117  A    between atoms: _290  and  _291
REMARK  118  A    between atoms: _296  and  _297
REMARK  119  A    between atoms: _299  and  _301
REMARK  120  A    between atoms: _301  and  _302
REMARK  121  A    between atoms: _301  and  _304
REMARK  122  A    between atoms: _304  and  _305
REMARK  123  A    between atoms: _310  and  _311
REMARK  124  A    between atoms: _313  and  _315
REMARK  125  A    between atoms: _315  and  _316
REMARK  126  A    between atoms: _315  and  _318
REMARK  127  A    between atoms: _318  and  _319
REMARK  128  A    between atoms: _319  and  _320
REMARK  129  A    between atoms: _323  and  _325
REMARK  130  A    between atoms: _325  and  _326
REMARK  131  A    between atoms: _325  and  _328
REMARK  132  A    between atoms: _328  and  _329
REMARK  133  A    between atoms: _334  and  _335
REMARK  134  A    between atoms: _337  and  _339
REMARK  135  A    between atoms: _339  and  _340
REMARK  136  A    between atoms: _339  and  _342
REMARK  137  A    between atoms: _342  and  _343
REMARK  138  A    between atoms: _348  and  _350
REMARK  139  A    between atoms: _350  and  _351
REMARK  140  A    between atoms: _350  and  _353
REMARK  141  A    between atoms: _353  and  _354
REMARK  142  A    between atoms: _357  and  _359
REMARK  143  A    between atoms: _359  and  _360
REMARK  144  A    between atoms: _359  and  _362
REMARK  145  A    between atoms: _362  and  _363
REMARK  146  A    between atoms: _368  and  _370
REMARK  147  A    between atoms: _370  and  _371
REMARK  148  A    between atoms: _370  and  _373
REMARK  149  A    between atoms: _373  and  _374
REMARK  150  A    between atoms: _384  and  _386
REMARK  151  A    between atoms: _386  and  _387
REMARK  152  A    between atoms: _386  and  _389
REMARK  153  A    between atoms: _389  and  _390
REMARK  154  A    between atoms: _396  and  _398
REMARK  155  A    between atoms: _398  and  _399
REMARK  156  A    between atoms: _398  and  _401
REMARK  157  A    between atoms: _401  and  _402
REMARK  158  A    between atoms: _405  and  _407
REMARK  159  A    between atoms: _407  and  _408
REMARK  160  A    between atoms: _407  and  _410
REMARK  161  A    between atoms: _410  and  _411
REMARK  162  A    between atoms: _414  and  _416
REMARK  163  A    between atoms: _416  and  _417
REMARK  164  A    between atoms: _416  and  _419
REMARK  165  A    between atoms: _419  and  _420
REMARK  166  A    between atoms: _420  and  _421
REMARK  167  A    between atoms: _421  and  _422
REMARK  168  A    between atoms: _431  and  _433
REMARK  169  A    between atoms: _433  and  _434
REMARK  170  A    between atoms: _433  and  _436
REMARK  171  A    between atoms: _436  and  _437
REMARK  172  A    between atoms: _442  and  _444
REMARK  173  A    between atoms: _444  and  _445
REMARK  174  A    between atoms: _444  and  _447
REMARK  175  A    between atoms: _447  and  _448
REMARK  176  A    between atoms: _448  and  _449
REMARK  177  A    between atoms: _449  and  _450
REMARK  178  A    between atoms: _459  and  _461
REMARK  179  A    between atoms: _461  and  _462
REMARK  180  A    between atoms: _465  and  _467
REMARK  181  A    between atoms: _467  and  _468
REMARK  182  A    between atoms: _470  and  _472
REMARK  183  A    between atoms: _472  and  _473
REMARK  184  A    between atoms: _472  and  _475
REMARK  185  A    between atoms: _475  and  _476
REMARK  186  A    between atoms: _486  and  _488
REMARK  187  A    between atoms: _488  and  _489
REMARK  188  A    between atoms: _488  and  _491
REMARK  189  A    between atoms: _491  and  _492
REMARK  190  A    between atoms: _493  and  _495
REMARK  191  A    between atoms: _495  and  _496
REMARK  192  A    between atoms: _499  and  _501
REMARK  193  A    between atoms: _501  and  _502
REMARK  194  A    between atoms: _501  and  _504
REMARK  195  A    between atoms: _504  and  _505
REMARK  196  A    between atoms: _508  and  _510
REMARK  197  A    between atoms: _510  and  _511
REMARK  198  A    between atoms: _510  and  _513
REMARK  199  A    between atoms: _513  and  _514
REMARK  200  A    between atoms: _519  and  _520
REMARK  201  A    between atoms: _522  and  _524
REMARK  202  A    between atoms: _524  and  _525
REMARK  203  A    between atoms: _524  and  _527
REMARK  204  A    between atoms: _527  and  _528
REMARK  205  A    between atoms: _530  and  _532
REMARK  206  A    between atoms: _532  and  _533
REMARK  207  A    between atoms: _532  and  _535
REMARK  208  A    between atoms: _535  and  _536
REMARK  209  A    between atoms: _542  and  _544
REMARK  210  A    between atoms: _544  and  _545
REMARK  211  A    between atoms: _544  and  _547
REMARK  212  A    between atoms: _547  and  _548
REMARK  213  A    between atoms: _551  and  _553
REMARK  214  A    between atoms: _553  and  _554
REMARK  215  A    between atoms: _553  and  _556
REMARK  216  A    between atoms: _556  and  _557
REMARK  217  A    between atoms: _559  and  _561
REMARK  218  A    between atoms: _561  and  _562
REMARK  219  A    between atoms: _561  and  _564
REMARK  220  A    between atoms: _564  and  _565
REMARK  221  A    between atoms: _570  and  _572
REMARK  222  A    between atoms: _572  and  _573
REMARK  223  A    between atoms: _572  and  _575
REMARK  224  A    between atoms: _575  and  _576
REMARK  225  A    between atoms: _581  and  _583
REMARK  226  A    between atoms: _583  and  _584
REMARK  227  A    between atoms: _583  and  _586
REMARK  228  A    between atoms: _586  and  _587
REMARK  229  A    between atoms: _590  and  _592
REMARK  230  A    between atoms: _592  and  _593
REMARK  231  A    between atoms: _592  and  _595
REMARK  232  A    between atoms: _595  and  _596
REMARK  233  A    between atoms: _601  and  _602
REMARK  234  A    between atoms: _604  and  _606
REMARK  235  A    between atoms: _606  and  _607
REMARK  236  A    between atoms: _606  and  _609
REMARK  237  A    between atoms: _609  and  _610
REMARK  238  A    between atoms: _615  and  _616
REMARK  239  A    between atoms: _618  and  _620
REMARK  240  A    between atoms: _620  and  _621
REMARK  241  A    between atoms: _620  and  _623
REMARK  242  A    between atoms: _626  and  _628
REMARK  243  A    between atoms: _628  and  _629
REMARK  244  A    between atoms: _628  and  _631
REMARK  245  A    between atoms: _631  and  _632
REMARK  246  A    between atoms: _637  and  _639
REMARK  247  A    between atoms: _639  and  _640
REMARK  248  A    between atoms: _643  and  _645
REMARK  249  A    between atoms: _645  and  _646
REMARK  250  A    between atoms: _645  and  _648
REMARK  251  A    between atoms: _648  and  _649
REMARK  252  A    between atoms: _649  and  _650
REMARK  253  A    between atoms: _650  and  _651
REMARK  254  A    between atoms: _660  and  _662
REMARK  255  A    between atoms: _662  and  _663
REMARK  256  A    between atoms: _662  and  _665
REMARK  257  A    between atoms: _665  and  _666
REMARK  258  A    between atoms: _669  and  _671
REMARK  259  A    between atoms: _671  and  _672
REMARK  260  A    between atoms: _671  and  _674
REMARK  261  A    between atoms: _674  and  _675
REMARK  262  A    between atoms: _678  and  _680
REMARK  263  A    between atoms: _680  and  _681
REMARK  264  A    between atoms: _680  and  _683
REMARK  265  A    between atoms: _683  and  _684
REMARK                            x       y       z     vdW  Elec       q    Type
REMARK                         _______ _______ _______ _____ _____    ______ ____
ROOT
ATOM      1  O   HOH     1      -7.425  23.538  12.261  0.00  0.00    +0.000 OA
ENDROOT
TORSDOF 0
REMARK  Name = ../refined-set-2016/1b9j/1b9j_pocket.pdb
REMARK  265 active torsions:
REMARK  status: ('A' for Active; 'I' for Inactive)
REMARK    1  A    between atoms: _1  and  _3
REMARK    2  A    between atoms: _3  and  _4
REMARK    3  A    between atoms: _3  and  _6
REMARK    4  A    between atoms: _6  and  _7
REMARK    5  A    between atoms: _12  and  _14
REMARK    6  A    between atoms: _14  and  _15
REMARK    7  A    between atoms: _17  and  _19
REMARK    8  A    between atoms: _19  and  _20
REMARK    9  A    between atoms: _19  and  _22
REMARK   10  A    between atoms: _22  and  _23
REMARK   11  A    between atoms: _25  and  _27
REMARK   12  A    between atoms: _27  and  _28
REMARK   13  A    between atoms: _27  and  _30
REMARK   14  A    between atoms: _30  and  _31
REMARK   15  A    between atoms: _31  and  _32
REMARK   16  A    between atoms: _37  and  _39
REMARK   17  A    between atoms: _39  and  _40
REMARK   18  A    between atoms: _39  and  _42
REMARK   19  A    between atoms: _42  and  _43
REMARK   20  A    between atoms: _46  and  _48
REMARK   21  A    between atoms: _48  and  _49
REMARK   22  A    between atoms: _48  and  _51
REMARK   23  A    between atoms: _51  and  _52
REMARK   24  A    between atoms: _52  and  _53
REMARK   25  A    between atoms: _56  and  _58
REMARK   26  A    between atoms: _58  and  _59
REMARK   27  A    between atoms: _61  and  _63
REMARK   28  A    between atoms: _63  and  _64
REMARK   29  A    between atoms: _63  and  _66
REMARK   30  A    between atoms: _70  and  _71
REMARK   31  A    between atoms: _76  and  _78
REMARK   32  A    between atoms: _78  and  _79
REMARK   33  A    between atoms: _78  and  _81
REMARK   34  A    between atoms: _81  and  _82
REMARK   35  A    between atoms: _82  and  _83
REMARK   36  A    between atoms: _86  and  _88
REMARK   37  A    between atoms: _88  and  _89
REMARK   38  A    between atoms: _88  and  _91
REMARK   39  A    between atoms: _91  and  _92
REMARK   40  A    between atoms: _94  and  _96
REMARK   41  A    between atoms: _96  and  _97
REMARK   42  A    between atoms: _96  and  _99
REMARK   43  A    between atoms: _99  and  _100
REMARK   44  A    between atoms: _105  and  _107
REMARK   45  A    between atoms: _107  and  _108
REMARK   46  A    between atoms: _107  and  _110
REMARK   47  A    between atoms: _110  and  _111
REMARK   48  A    between atoms: _111  and  _112
REMARK   49  A    between atoms: _112  and  _113
REMARK   50  A    between atoms: _123  and  _124
REMARK   51  A    between atoms: _129  and  _131
REMARK   52  A    between atoms: _131  and  _132
REMARK   53  A    between atoms: _131  and  _134
REMARK   54  A    between atoms: _134  and  _135
REMARK   55  A    between atoms: _140  and  _141
REMARK   56  A    between atoms: _143  and  _145
REMARK   57  A    between atoms: _145  and  _146
REMARK   58  A    between atoms: _145  and  _148
REMARK   59  A    between atoms: _148  and  _149
REMARK   60  A    between atoms: _154  and  _155
REMARK   61  A    between atoms: _157  and  _159
REMARK   62  A    between atoms: _159  and  _160
REMARK   63  A    between atoms: _159  and  _162
REMARK   64  A    between atoms: _165  and  _167
REMARK   65  A    between atoms: _167  and  _168
REMARK   66  A    between atoms: _167  and  _170
REMARK   67  A    between atoms: _170  and  _171
REMARK   68  A    between atoms: _177  and  _178
REMARK   69  A    between atoms: _183  and  _185
REMARK   70  A    between atoms: _185  and  _186
REMARK   71  A    between atoms: _185  and  _188
REMARK   72  A    between atoms: _188  and  _189
REMARK   73  A    between atoms: _191  and  _193
REMARK   74  A    between atoms: _193  and  _194
REMARK   75  A    between atoms: _193  and  _196
REMARK   76  A    between atoms: _196  and  _197
REMARK   77  A    between atoms: _197  and  _198
REMARK   78  A    between atoms: _201  and  _203
REMARK   79  A    between atoms: _203  and  _204
REMARK   80  A    between atoms: _203  and  _206
REMARK   81  A    between atoms: _206  and  _207
REMARK   82  A    between atoms: _212  and  _213
REMARK   83  A    between atoms: _215  and  _217
REMARK   84  A    between atoms: _217  and  _218
REMARK   85  A    between atoms: _217  and  _220
REMARK   86  A    between atoms: _220  and  _221
REMARK   87  A    between atoms: _226  and  _228
REMARK   88  A    between atoms: _228  and  _229
REMARK   89  A    between atoms: _228  and  _231
REMARK   90  A    between atoms: _231  and  _232
REMARK   91  A    between atoms: _237  and  _239
REMARK   92  A    between atoms: _239  and  _240
REMARK   93  A    between atoms: _239  and  _242
REMARK   94  A    between atoms: _242  and  _243
REMARK   95  A    between atoms: _243  and  _244
REMARK   96  A    between atoms: _246  and  _248
REMARK   97  A    between atoms: _248  and  _249
REMARK   98  A    between atoms: _248  and  _251
REMARK   99  A    between atoms: _251  and  _252
REMARK  100  A    between atoms: _257  and  _258
REMARK  101  A    between atoms: _260  and  _262
REMARK  102  A    between atoms: _262  and  _263
REMARK  103  A    between atoms: _262  and  _265
REMARK  104  A    between atoms: _265  and  _266
REMARK  105  A    between atoms: _269  and  _271
REMARK  106  A    between atoms: _271  and  _272
REMARK  107  A    between atoms: _271  and  _274
REMARK  108  A    between atoms: _274  and  _275
REMARK  109  A    between atoms: _275  and  _492
REMARK  110  A    between atoms: _276  and  _278
REMARK  111  A    between atoms: _278  and  _279
REMARK  112  A    between atoms: _278  and  _281
REMARK  113  A    between atoms: _281  and  _282
REMARK  114  A    between atoms: _285  and  _287
REMARK  115  A    between atoms: _287  and  _288
REMARK  116  A    between atoms: _287  and  _290
REMARK  117  A    between atoms: _290  and  _291
REMARK  118  A    between atoms: _296  and  _297
REMARK  119  A    between atoms: _299  and  _301
REMARK  120  A    between atoms: _301  and  _302
REMARK  121  A    between atoms: _301  and  _304
REMARK  122  A    between atoms: _304  and  _305
REMARK  123  A    between atoms: _310  and  _311
REMARK  124  A    between atoms: _313  and  _315
REMARK  125  A    between atoms: _315  and  _316
REMARK  126  A    between atoms: _315  and  _318
REMARK  127  A    between atoms: _318  and  _319
REMARK  128  A    between atoms: _319  and  _320
REMARK  129  A    between atoms: _323  and  _325
REMARK  130  A    between atoms: _325  and  _326
REMARK  131  A    between atoms: _325  and  _328
REMARK  132  A    between atoms: _328  and  _329
REMARK  133  A    between atoms: _334  and  _335
REMARK  134  A    between atoms: _337  and  _339
REMARK  135  A    between atoms: _339  and  _340
REMARK  136  A    between atoms: _339  and  _342
REMARK  137  A    between atoms: _342  and  _343
REMARK  138  A    between atoms: _348  and  _350
REMARK  139  A    between atoms: _350  and  _351
REMARK  140  A    between atoms: _350  and  _353
REMARK  141  A    between atoms: _353  and  _354
REMARK  142  A    between atoms: _357  and  _359
REMARK  143  A    between atoms: _359  and  _360
REMARK  144  A    between atoms: _359  and  _362
REMARK  145  A    between atoms: _362  and  _363
REMARK  146  A    between atoms: _368  and  _370
REMARK  147  A    between atoms: _370  and  _371
REMARK  148  A    between atoms: _370  and  _373
REMARK  149  A    between atoms: _373  and  _374
REMARK  150  A    between atoms: _384  and  _386
REMARK  151  A    between atoms: _386  and  _387
REMARK  152  A    between atoms: _386  and  _389
REMARK  153  A    between atoms: _389  and  _390
REMARK  154  A    between atoms: _396  and  _398
REMARK  155  A    between atoms: _398  and  _399
REMARK  156  A    between atoms: _398  and  _401
REMARK  157  A    between atoms: _401  and  _402
REMARK  158  A    between atoms: _405  and  _407
REMARK  159  A    between atoms: _407  and  _408
REMARK  160  A    between atoms: _407  and  _410
REMARK  161  A    between atoms: _410  and  _411
REMARK  162  A    between atoms: _414  and  _416
REMARK  163  A    between atoms: _416  and  _417
REMARK  164  A    between atoms: _416  and  _419
REMARK  165  A    between atoms: _419  and  _420
REMARK  166  A    between atoms: _420  and  _421
REMARK  167  A    between atoms: _421  and  _422
REMARK  168  A    between atoms: _431  and  _433
REMARK  169  A    between atoms: _433  and  _434
REMARK  170  A    between atoms: _433  and  _436
REMARK  171  A    between atoms: _436  and  _437
REMARK  172  A    between atoms: _442  and  _444
REMARK  173  A    between atoms: _444  and  _445
REMARK  174  A    between atoms: _444  and  _447
REMARK  175  A    between atoms: _447  and  _448
REMARK  176  A    between atoms: _448  and  _449
REMARK  177  A    between atoms: _449  and  _450
REMARK  178  A    between atoms: _459  and  _461
REMARK  179  A    between atoms: _461  and  _462
REMARK  180  A    between atoms: _465  and  _467
REMARK  181  A    between atoms: _467  and  _468
REMARK  182  A    between atoms: _470  and  _472
REMARK  183  A    between atoms: _472  and  _473
REMARK  184  A    between atoms: _472  and  _475
REMARK  185  A    between atoms: _475  and  _476
REMARK  186  A    between atoms: _486  and  _488
REMARK  187  A    between atoms: _488  and  _489
REMARK  188  A    between atoms: _488  and  _491
REMARK  189  A    between atoms: _491  and  _492
REMARK  190  A    between atoms: _493  and  _495
REMARK  191  A    between atoms: _495  and  _496
REMARK  192  A    between atoms: _499  and  _501
REMARK  193  A    between atoms: _501  and  _502
REMARK  194  A    between atoms: _501  and  _504
REMARK  195  A    between atoms: _504  and  _505
REMARK  196  A    between atoms: _508  and  _510
REMARK  197  A    between atoms: _510  and  _511
REMARK  198  A    between atoms: _510  and  _513
REMARK  199  A    between atoms: _513  and  _514
REMARK  200  A    between atoms: _519  and  _520
REMARK  201  A    between atoms: _522  and  _524
REMARK  202  A    between atoms: _524  and  _525
REMARK  203  A    between atoms: _524  and  _527
REMARK  204  A    between atoms: _527  and  _528
REMARK  205  A    between atoms: _530  and  _532
REMARK  206  A    between atoms: _532  and  _533
REMARK  207  A    between atoms: _532  and  _535
REMARK  208  A    between atoms: _535  and  _536
REMARK  209  A    between atoms: _542  and  _544
REMARK  210  A    between atoms: _544  and  _545
REMARK  211  A    between atoms: _544  and  _547
REMARK  212  A    between atoms: _547  and  _548
REMARK  213  A    between atoms: _551  and  _553
REMARK  214  A    between atoms: _553  and  _554
REMARK  215  A    between atoms: _553  and  _556
REMARK  216  A    between atoms: _556  and  _557
REMARK  217  A    between atoms: _559  and  _561
REMARK  218  A    between atoms: _561  and  _562
REMARK  219  A    between atoms: _561  and  _564
REMARK  220  A    between atoms: _564  and  _565
REMARK  221  A    between atoms: _570  and  _572
REMARK  222  A    between atoms: _572  and  _573
REMARK  223  A    between atoms: _572  and  _575
REMARK  224  A    between atoms: _575  and  _576
REMARK  225  A    between atoms: _581  and  _583
REMARK  226  A    between atoms: _583  and  _584
REMARK  227  A    between atoms: _583  and  _586
REMARK  228  A    between atoms: _586  and  _587
REMARK  229  A    between atoms: _590  and  _592
REMARK  230  A    between atoms: _592  and  _593
REMARK  231  A    between atoms: _592  and  _595
REMARK  232  A    between atoms: _595  and  _596
REMARK  233  A    between atoms: _601  and  _602
REMARK  234  A    between atoms: _604  and  _606
REMARK  235  A    between atoms: _606  and  _607
REMARK  236  A    between atoms: _606  and  _609
REMARK  237  A    between atoms: _609  and  _610
REMARK  238  A    between atoms: _615  and  _616
REMARK  239  A    between atoms: _618  and  _620
REMARK  240  A    between atoms: _620  and  _621
REMARK  241  A    between atoms: _620  and  _623
REMARK  242  A    between atoms: _626  and  _628
REMARK  243  A    between atoms: _628  and  _629
REMARK  244  A    between atoms: _628  and  _631
REMARK  245  A    between atoms: _631  and  _632
REMARK  246  A    between atoms: _637  and  _639
REMARK  247  A    between atoms: _639  and  _640
REMARK  248  A    between atoms: _643  and  _645
REMARK  249  A    between atoms: _645  and  _646
REMARK  250  A    between atoms: _645  and  _648
REMARK  251  A    between atoms: _648  and  _649
REMARK  252  A    between atoms: _649  and  _650
REMARK  253  A    between atoms: _650  and  _651
REMARK  254  A    between atoms: _660  and  _662
REMARK  255  A    between atoms: _662  and  _663
REMARK  256  A    between atoms: _662  and  _665
REMARK  257  A    between atoms: _665  and  _666
REMARK  258  A    between atoms: _669  and  _671
REMARK  259  A    between atoms: _671  and  _672
REMARK  260  A    between atoms: _671  and  _674
REMARK  261  A    between atoms: _674  and  _675
REMARK  262  A    between atoms: _678  and  _680
REMARK  263  A    between atoms: _680  and  _681
REMARK  264  A    between atoms: _680  and  _683
REMARK  265  A    between atoms: _683  and  _684
REMARK                            x       y       z     vdW  Elec       q    Type
REMARK                         _______ _______ _______ _____ _____    ______ ____
ROOT
ATOM      1  O   HOH     1      10.458  28.267  16.004  0.00  0.00    +0.000 OA
ENDROOT
TORSDOF 0
REMARK  Name = ../refined-set-2016/1b9j/1b9j_pocket.pdb
REMARK  265 active torsions:
REMARK  status: ('A' for Active; 'I' for Inactive)
REMARK    1  A    between atoms: _1  and  _3
REMARK    2  A    between atoms: _3  and  _4
REMARK    3  A    between atoms: _3  and  _6
REMARK    4  A    between atoms: _6  and  _7
REMARK    5  A    between atoms: _12  and  _14
REMARK    6  A    between atoms: _14  and  _15
REMARK    7  A    between atoms: _17  and  _19
REMARK    8  A    between atoms: _19  and  _20
REMARK    9  A    between atoms: _19  and  _22
REMARK   10  A    between atoms: _22  and  _23
REMARK   11  A    between atoms: _25  and  _27
REMARK   12  A    between atoms: _27  and  _28
REMARK   13  A    between atoms: _27  and  _30
REMARK   14  A    between atoms: _30  and  _31
REMARK   15  A    between atoms: _31  and  _32
REMARK   16  A    between atoms: _37  and  _39
REMARK   17  A    between atoms: _39  and  _40
REMARK   18  A    between atoms: _39  and  _42
REMARK   19  A    between atoms: _42  and  _43
REMARK   20  A    between atoms: _46  and  _48
REMARK   21  A    between atoms: _48  and  _49
REMARK   22  A    between atoms: _48  and  _51
REMARK   23  A    between atoms: _51  and  _52
REMARK   24  A    between atoms: _52  and  _53
REMARK   25  A    between atoms: _56  and  _58
REMARK   26  A    between atoms: _58  and  _59
REMARK   27  A    between atoms: _61  and  _63
REMARK   28  A    between atoms: _63  and  _64
REMARK   29  A    between atoms: _63  and  _66
REMARK   30  A    between atoms: _70  and  _71
REMARK   31  A    between atoms: _76  and  _78
REMARK   32  A    between atoms: _78  and  _79
REMARK   33  A    between atoms: _78  and  _81
REMARK   34  A    between atoms: _81  and  _82
REMARK   35  A    between atoms: _82  and  _83
REMARK   36  A    between atoms: _86  and  _88
REMARK   37  A    between atoms: _88  and  _89
REMARK   38  A    between atoms: _88  and  _91
REMARK   39  A    between atoms: _91  and  _92
REMARK   40  A    between atoms: _94  and  _96
REMARK   41  A    between atoms: _96  and  _97
REMARK   42  A    between atoms: _96  and  _99
REMARK   43  A    between atoms: _99  and  _100
REMARK   44  A    between atoms: _105  and  _107
REMARK   45  A    between atoms: _107  and  _108
REMARK   46  A    between atoms: _107  and  _110
REMARK   47  A    between atoms: _110  and  _111
REMARK   48  A    between atoms: _111  and  _112
REMARK   49  A    between atoms: _112  and  _113
REMARK   50  A    between atoms: _123  and  _124
REMARK   51  A    between atoms: _129  and  _131
REMARK   52  A    between atoms: _131  and  _132
REMARK   53  A    between atoms: _131  and  _134
REMARK   54  A    between atoms: _134  and  _135
REMARK   55  A    between atoms: _140  and  _141
REMARK   56  A    between atoms: _143  and  _145
REMARK   57  A    between atoms: _145  and  _146
REMARK   58  A    between atoms: _145  and  _148
REMARK   59  A    between atoms: _148  and  _149
REMARK   60  A    between atoms: _154  and  _155
REMARK   61  A    between atoms: _157  and  _159
REMARK   62  A    between atoms: _159  and  _160
REMARK   63  A    between atoms: _159  and  _162
REMARK   64  A    between atoms: _165  and  _167
REMARK   65  A    between atoms: _167  and  _168
REMARK   66  A    between atoms: _167  and  _170
REMARK   67  A    between atoms: _170  and  _171
REMARK   68  A    between atoms: _177  and  _178
REMARK   69  A    between atoms: _183  and  _185
REMARK   70  A    between atoms: _185  and  _186
REMARK   71  A    between atoms: _185  and  _188
REMARK   72  A    between atoms: _188  and  _189
REMARK   73  A    between atoms: _191  and  _193
REMARK   74  A    between atoms: _193  and  _194
REMARK   75  A    between atoms: _193  and  _196
REMARK   76  A    between atoms: _196  and  _197
REMARK   77  A    between atoms: _197  and  _198
REMARK   78  A    between atoms: _201  and  _203
REMARK   79  A    between atoms: _203  and  _204
REMARK   80  A    between atoms: _203  and  _206
REMARK   81  A    between atoms: _206  and  _207
REMARK   82  A    between atoms: _212  and  _213
REMARK   83  A    between atoms: _215  and  _217
REMARK   84  A    between atoms: _217  and  _218
REMARK   85  A    between atoms: _217  and  _220
REMARK   86  A    between atoms: _220  and  _221
REMARK   87  A    between atoms: _226  and  _228
REMARK   88  A    between atoms: _228  and  _229
REMARK   89  A    between atoms: _228  and  _231
REMARK   90  A    between atoms: _231  and  _232
REMARK   91  A    between atoms: _237  and  _239
REMARK   92  A    between atoms: _239  and  _240
REMARK   93  A    between atoms: _239  and  _242
REMARK   94  A    between atoms: _242  and  _243
REMARK   95  A    between atoms: _243  and  _244
REMARK   96  A    between atoms: _246  and  _248
REMARK   97  A    between atoms: _248  and  _249
REMARK   98  A    between atoms: _248  and  _251
REMARK   99  A    between atoms: _251  and  _252
REMARK  100  A    between atoms: _257  and  _258
REMARK  101  A    between atoms: _260  and  _262
REMARK  102  A    between atoms: _262  and  _263
REMARK  103  A    between atoms: _262  and  _265
REMARK  104  A    between atoms: _265  and  _266
REMARK  105  A    between atoms: _269  and  _271
REMARK  106  A    between atoms: _271  and  _272
REMARK  107  A    between atoms: _271  and  _274
REMARK  108  A    between atoms: _274  and  _275
REMARK  109  A    between atoms: _275  and  _492
REMARK  110  A    between atoms: _276  and  _278
REMARK  111  A    between atoms: _278  and  _279
REMARK  112  A    between atoms: _278  and  _281
REMARK  113  A    between atoms: _281  and  _282
REMARK  114  A    between atoms: _285  and  _287
REMARK  115  A    between atoms: _287  and  _288
REMARK  116  A    between atoms: _287  and  _290
REMARK  117  A    between atoms: _290  and  _291
REMARK  118  A    between atoms: _296  and  _297
REMARK  119  A    between atoms: _299  and  _301
REMARK  120  A    between atoms: _301  and  _302
REMARK  121  A    between atoms: _301  and  _304
REMARK  122  A    between atoms: _304  and  _305
REMARK  123  A    between atoms: _310  and  _311
REMARK  124  A    between atoms: _313  and  _315
REMARK  125  A    between atoms: _315  and  _316
REMARK  126  A    between atoms: _315  and  _318
REMARK  127  A    between atoms: _318  and  _319
REMARK  128  A    between atoms: _319  and  _320
REMARK  129  A    between atoms: _323  and  _325
REMARK  130  A    between atoms: _325  and  _326
REMARK  131  A    between atoms: _325  and  _328
REMARK  132  A    between atoms: _328  and  _329
REMARK  133  A    between atoms: _334  and  _335
REMARK  134  A    between atoms: _337  and  _339
REMARK  135  A    between atoms: _339  and  _340
REMARK  136  A    between atoms: _339  and  _342
REMARK  137  A    between atoms: _342  and  _343
REMARK  138  A    between atoms: _348  and  _350
REMARK  139  A    between atoms: _350  and  _351
REMARK  140  A    between atoms: _350  and  _353
REMARK  141  A    between atoms: _353  and  _354
REMARK  142  A    between atoms: _357  and  _359
REMARK  143  A    between atoms: _359  and  _360
REMARK  144  A    between atoms: _359  and  _362
REMARK  145  A    between atoms: _362  and  _363
REMARK  146  A    between atoms: _368  and  _370
REMARK  147  A    between atoms: _370  and  _371
REMARK  148  A    between atoms: _370  and  _373
REMARK  149  A    between atoms: _373  and  _374
REMARK  150  A    between atoms: _384  and  _386
REMARK  151  A    between atoms: _386  and  _387
REMARK  152  A    between atoms: _386  and  _389
REMARK  153  A    between atoms: _389  and  _390
REMARK  154  A    between atoms: _396  and  _398
REMARK  155  A    between atoms: _398  and  _399
REMARK  156  A    between atoms: _398  and  _401
REMARK  157  A    between atoms: _401  and  _402
REMARK  158  A    between atoms: _405  and  _407
REMARK  159  A    between atoms: _407  and  _408
REMARK  160  A    between atoms: _407  and  _410
REMARK  161  A    between atoms: _410  and  _411
REMARK  162  A    between atoms: _414  and  _416
REMARK  163  A    between atoms: _416  and  _417
REMARK  164  A    between atoms: _416  and  _419
REMARK  165  A    between atoms: _419  and  _420
REMARK  166  A    between atoms: _420  and  _421
REMARK  167  A    between atoms: _421  and  _422
REMARK  168  A    between atoms: _431  and  _433
REMARK  169  A    between atoms: _433  and  _434
REMARK  170  A    between atoms: _433  and  _436
REMARK  171  A    between atoms: _436  and  _437
REMARK  172  A    between atoms: _442  and  _444
REMARK  173  A    between atoms: _444  and  _445
REMARK  174  A    between atoms: _444  and  _447
REMARK  175  A    between atoms: _447  and  _448
REMARK  176  A    between atoms: _448  and  _449
REMARK  177  A    between atoms: _449  and  _450
REMARK  178  A    between atoms: _459  and  _461
REMARK  179  A    between atoms: _461  and  _462
REMARK  180  A    between atoms: _465  and  _467
REMARK  181  A    between atoms: _467  and  _468
REMARK  182  A    between atoms: _470  and  _472
REMARK  183  A    between atoms: _472  and  _473
REMARK  184  A    between atoms: _472  and  _475
REMARK  185  A    between atoms: _475  and  _476
REMARK  186  A    between atoms: _486  and  _488
REMARK  187  A    between atoms: _488  and  _489
REMARK  188  A    between atoms: _488  and  _491
REMARK  189  A    between atoms: _491  and  _492
REMARK  190  A    between atoms: _493  and  _495
REMARK  191  A    between atoms: _495  and  _496
REMARK  192  A    between atoms: _499  and  _501
REMARK  193  A    between atoms: _501  and  _502
REMARK  194  A    between atoms: _501  and  _504
REMARK  195  A    between atoms: _504  and  _505
REMARK  196  A    between atoms: _508  and  _510
REMARK  197  A    between atoms: _510  and  _511
REMARK  198  A    between atoms: _510  and  _513
REMARK  199  A    between atoms: _513  and  _514
REMARK  200  A    between atoms: _519  and  _520
REMARK  201  A    between atoms: _522  and  _524
REMARK  202  A    between atoms: _524  and  _525
REMARK  203  A    between atoms: _524  and  _527
REMARK  204  A    between atoms: _527  and  _528
REMARK  205  A    between atoms: _530  and  _532
REMARK  206  A    between atoms: _532  and  _533
REMARK  207  A    between atoms: _532  and  _535
REMARK  208  A    between atoms: _535  and  _536
REMARK  209  A    between atoms: _542  and  _544
REMARK  210  A    between atoms: _544  and  _545
REMARK  211  A    between atoms: _544  and  _547
REMARK  212  A    between atoms: _547  and  _548
REMARK  213  A    between atoms: _551  and  _553
REMARK  214  A    between atoms: _553  and  _554
REMARK  215  A    between atoms: _553  and  _556
REMARK  216  A    between atoms: _556  and  _557
REMARK  217  A    between atoms: _559  and  _561
REMARK  218  A    between atoms: _561  and  _562
REMARK  219  A    between atoms: _561  and  _564
REMARK  220  A    between atoms: _564  and  _565
REMARK  221  A    between atoms: _570  and  _572
REMARK  222  A    between atoms: _572  and  _573
REMARK  223  A    between atoms: _572  and  _575
REMARK  224  A    between atoms: _575  and  _576
REMARK  225  A    between atoms: _581  and  _583
REMARK  226  A    between atoms: _583  and  _584
REMARK  227  A    between atoms: _583  and  _586
REMARK  228  A    between atoms: _586  and  _587
REMARK  229  A    between atoms: _590  and  _592
REMARK  230  A    between atoms: _592  and  _593
REMARK  231  A    between atoms: _592  and  _595
REMARK  232  A    between atoms: _595  and  _596
REMARK  233  A    between atoms: _601  and  _602
REMARK  234  A    between atoms: _604  and  _606
REMARK  235  A    between atoms: _606  and  _607
REMARK  236  A    between atoms: _606  and  _609
REMARK  237  A    between atoms: _609  and  _610
REMARK  238  A    between atoms: _615  and  _616
REMARK  239  A    between atoms: _618  and  _620
REMARK  240  A    between atoms: _620  and  _621
REMARK  241  A    between atoms: _620  and  _623
REMARK  242  A    between atoms: _626  and  _628
REMARK  243  A    between atoms: _628  and  _629
REMARK  244  A    between atoms: _628  and  _631
REMARK  245  A    between atoms: _631  and  _632
REMARK  246  A    between atoms: _637  and  _639
REMARK  247  A    between atoms: _639  and  _640
REMARK  248  A    between atoms: _643  and  _645
REMARK  249  A    between atoms: _645  and  _646
REMARK  250  A    between atoms: _645  and  _648
REMARK  251  A    between atoms: _648  and  _649
REMARK  252  A    between atoms: _649  and  _650
REMARK  253  A    between atoms: _650  and  _651
REMARK  254  A    between atoms: _660  and  _662
REMARK  255  A    between atoms: _662  and  _663
REMARK  256  A    between atoms: _662  and  _665
REMARK  257  A    between atoms: _665  and  _666
REMARK  258  A    between atoms: _669  and  _671
REMARK  259  A    between atoms: _671  and  _672
REMARK  260  A    between atoms: _671  and  _674
REMARK  261  A    between atoms: _674  and  _675
REMARK  262  A    between atoms: _678  and  _680
REMARK  263  A    between atoms: _680  and  _681
REMARK  264  A    between atoms: _680  and  _683
REMARK  265  A    between atoms: _683  and  _684
REMARK                            x       y       z     vdW  Elec       q    Type
REMARK                         _______ _______ _______ _____ _____    ______ ____
ROOT
ATOM      1  O   HOH     1      -1.758  21.525  12.635  0.00  0.00    +0.000 OA
ENDROOT
TORSDOF 0
REMARK  Name = ../refined-set-2016/1b9j/1b9j_pocket.pdb
REMARK  265 active torsions:
REMARK  status: ('A' for Active; 'I' for Inactive)
REMARK    1  A    between atoms: _1  and  _3
REMARK    2  A    between atoms: _3  and  _4
REMARK    3  A    between atoms: _3  and  _6
REMARK    4  A    between atoms: _6  and  _7
REMARK    5  A    between atoms: _12  and  _14
REMARK    6  A    between atoms: _14  and  _15
REMARK    7  A    between atoms: _17  and  _19
REMARK    8  A    between atoms: _19  and  _20
REMARK    9  A    between atoms: _19  and  _22
REMARK   10  A    between atoms: _22  and  _23
REMARK   11  A    between atoms: _25  and  _27
REMARK   12  A    between atoms: _27  and  _28
REMARK   13  A    between atoms: _27  and  _30
REMARK   14  A    between atoms: _30  and  _31
REMARK   15  A    between atoms: _31  and  _32
REMARK   16  A    between atoms: _37  and  _39
REMARK   17  A    between atoms: _39  and  _40
REMARK   18  A    between atoms: _39  and  _42
REMARK   19  A    between atoms: _42  and  _43
REMARK   20  A    between atoms: _46  and  _48
REMARK   21  A    between atoms: _48  and  _49
REMARK   22  A    between atoms: _48  and  _51
REMARK   23  A    between atoms: _51  and  _52
REMARK   24  A    between atoms: _52  and  _53
REMARK   25  A    between atoms: _56  and  _58
REMARK   26  A    between atoms: _58  and  _59
REMARK   27  A    between atoms: _61  and  _63
REMARK   28  A    between atoms: _63  and  _64
REMARK   29  A    between atoms: _63  and  _66
REMARK   30  A    between atoms: _70  and  _71
REMARK   31  A    between atoms: _76  and  _78
REMARK   32  A    between atoms: _78  and  _79
REMARK   33  A    between atoms: _78  and  _81
REMARK   34  A    between atoms: _81  and  _82
REMARK   35  A    between atoms: _82  and  _83
REMARK   36  A    between atoms: _86  and  _88
REMARK   37  A    between atoms: _88  and  _89
REMARK   38  A    between atoms: _88  and  _91
REMARK   39  A    between atoms: _91  and  _92
REMARK   40  A    between atoms: _94  and  _96
REMARK   41  A    between atoms: _96  and  _97
REMARK   42  A    between atoms: _96  and  _99
REMARK   43  A    between atoms: _99  and  _100
REMARK   44  A    between atoms: _105  and  _107
REMARK   45  A    between atoms: _107  and  _108
REMARK   46  A    between atoms: _107  and  _110
REMARK   47  A    between atoms: _110  and  _111
REMARK   48  A    between atoms: _111  and  _112
REMARK   49  A    between atoms: _112  and  _113
REMARK   50  A    between atoms: _123  and  _124
REMARK   51  A    between atoms: _129  and  _131
REMARK   52  A    between atoms: _131  and  _132
REMARK   53  A    between atoms: _131  and  _134
REMARK   54  A    between atoms: _134  and  _135
REMARK   55  A    between atoms: _140  and  _141
REMARK   56  A    between atoms: _143  and  _145
REMARK   57  A    between atoms: _145  and  _146
REMARK   58  A    between atoms: _145  and  _148
REMARK   59  A    between atoms: _148  and  _149
REMARK   60  A    between atoms: _154  and  _155
REMARK   61  A    between atoms: _157  and  _159
REMARK   62  A    between atoms: _159  and  _160
REMARK   63  A    between atoms: _159  and  _162
REMARK   64  A    between atoms: _165  and  _167
REMARK   65  A    between atoms: _167  and  _168
REMARK   66  A    between atoms: _167  and  _170
REMARK   67  A    between atoms: _170  and  _171
REMARK   68  A    between atoms: _177  and  _178
REMARK   69  A    between atoms: _183  and  _185
REMARK   70  A    between atoms: _185  and  _186
REMARK   71  A    between atoms: _185  and  _188
REMARK   72  A    between atoms: _188  and  _189
REMARK   73  A    between atoms: _191  and  _193
REMARK   74  A    between atoms: _193  and  _194
REMARK   75  A    between atoms: _193  and  _196
REMARK   76  A    between atoms: _196  and  _197
REMARK   77  A    between atoms: _197  and  _198
REMARK   78  A    between atoms: _201  and  _203
REMARK   79  A    between atoms: _203  and  _204
REMARK   80  A    between atoms: _203  and  _206
REMARK   81  A    between atoms: _206  and  _207
REMARK   82  A    between atoms: _212  and  _213
REMARK   83  A    between atoms: _215  and  _217
REMARK   84  A    between atoms: _217  and  _218
REMARK   85  A    between atoms: _217  and  _220
REMARK   86  A    between atoms: _220  and  _221
REMARK   87  A    between atoms: _226  and  _228
REMARK   88  A    between atoms: _228  and  _229
REMARK   89  A    between atoms: _228  and  _231
REMARK   90  A    between atoms: _231  and  _232
REMARK   91  A    between atoms: _237  and  _239
REMARK   92  A    between atoms: _239  and  _240
REMARK   93  A    between atoms: _239  and  _242
REMARK   94  A    between atoms: _242  and  _243
REMARK   95  A    between atoms: _243  and  _244
REMARK   96  A    between atoms: _246  and  _248
REMARK   97  A    between atoms: _248  and  _249
REMARK   98  A    between atoms: _248  and  _251
REMARK   99  A    between atoms: _251  and  _252
REMARK  100  A    between atoms: _257  and  _258
REMARK  101  A    between atoms: _260  and  _262
REMARK  102  A    between atoms: _262  and  _263
REMARK  103  A    between atoms: _262  and  _265
REMARK  104  A    between atoms: _265  and  _266
REMARK  105  A    between atoms: _269  and  _271
REMARK  106  A    between atoms: _271  and  _272
REMARK  107  A    between atoms: _271  and  _274
REMARK  108  A    between atoms: _274  and  _275
REMARK  109  A    between atoms: _275  and  _492
REMARK  110  A    between atoms: _276  and  _278
REMARK  111  A    between atoms: _278  and  _279
REMARK  112  A    between atoms: _278  and  _281
REMARK  113  A    between atoms: _281  and  _282
REMARK  114  A    between atoms: _285  and  _287
REMARK  115  A    between atoms: _287  and  _288
REMARK  116  A    between atoms: _287  and  _290
REMARK  117  A    between atoms: _290  and  _291
REMARK  118  A    between atoms: _296  and  _297
REMARK  119  A    between atoms: _299  and  _301
REMARK  120  A    between atoms: _301  and  _302
REMARK  121  A    between atoms: _301  and  _304
REMARK  122  A    between atoms: _304  and  _305
REMARK  123  A    between atoms: _310  and  _311
REMARK  124  A    between atoms: _313  and  _315
REMARK  125  A    between atoms: _315  and  _316
REMARK  126  A    between atoms: _315  and  _318
REMARK  127  A    between atoms: _318  and  _319
REMARK  128  A    between atoms: _319  and  _320
REMARK  129  A    between atoms: _323  and  _325
REMARK  130  A    between atoms: _325  and  _326
REMARK  131  A    between atoms: _325  and  _328
REMARK  132  A    between atoms: _328  and  _329
REMARK  133  A    between atoms: _334  and  _335
REMARK  134  A    between atoms: _337  and  _339
REMARK  135  A    between atoms: _339  and  _340
REMARK  136  A    between atoms: _339  and  _342
REMARK  137  A    between atoms: _342  and  _343
REMARK  138  A    between atoms: _348  and  _350
REMARK  139  A    between atoms: _350  and  _351
REMARK  140  A    between atoms: _350  and  _353
REMARK  141  A    between atoms: _353  and  _354
REMARK  142  A    between atoms: _357  and  _359
REMARK  143  A    between atoms: _359  and  _360
REMARK  144  A    between atoms: _359  and  _362
REMARK  145  A    between atoms: _362  and  _363
REMARK  146  A    between atoms: _368  and  _370
REMARK  147  A    between atoms: _370  and  _371
REMARK  148  A    between atoms: _370  and  _373
REMARK  149  A    between atoms: _373  and  _374
REMARK  150  A    between atoms: _384  and  _386
REMARK  151  A    between atoms: _386  and  _387
REMARK  152  A    between atoms: _386  and  _389
REMARK  153  A    between atoms: _389  and  _390
REMARK  154  A    between atoms: _396  and  _398
REMARK  155  A    between atoms: _398  and  _399
REMARK  156  A    between atoms: _398  and  _401
REMARK  157  A    between atoms: _401  and  _402
REMARK  158  A    between atoms: _405  and  _407
REMARK  159  A    between atoms: _407  and  _408
REMARK  160  A    between atoms: _407  and  _410
REMARK  161  A    between atoms: _410  and  _411
REMARK  162  A    between atoms: _414  and  _416
REMARK  163  A    between atoms: _416  and  _417
REMARK  164  A    between atoms: _416  and  _419
REMARK  165  A    between atoms: _419  and  _420
REMARK  166  A    between atoms: _420  and  _421
REMARK  167  A    between atoms: _421  and  _422
REMARK  168  A    between atoms: _431  and  _433
REMARK  169  A    between atoms: _433  and  _434
REMARK  170  A    between atoms: _433  and  _436
REMARK  171  A    between atoms: _436  and  _437
REMARK  172  A    between atoms: _442  and  _444
REMARK  173  A    between atoms: _444  and  _445
REMARK  174  A    between atoms: _444  and  _447
REMARK  175  A    between atoms: _447  and  _448
REMARK  176  A    between atoms: _448  and  _449
REMARK  177  A    between atoms: _449  and  _450
REMARK  178  A    between atoms: _459  and  _461
REMARK  179  A    between atoms: _461  and  _462
REMARK  180  A    between atoms: _465  and  _467
REMARK  181  A    between atoms: _467  and  _468
REMARK  182  A    between atoms: _470  and  _472
REMARK  183  A    between atoms: _472  and  _473
REMARK  184  A    between atoms: _472  and  _475
REMARK  185  A    between atoms: _475  and  _476
REMARK  186  A    between atoms: _486  and  _488
REMARK  187  A    between atoms: _488  and  _489
REMARK  188  A    between atoms: _488  and  _491
REMARK  189  A    between atoms: _491  and  _492
REMARK  190  A    between atoms: _493  and  _495
REMARK  191  A    between atoms: _495  and  _496
REMARK  192  A    between atoms: _499  and  _501
REMARK  193  A    between atoms: _501  and  _502
REMARK  194  A    between atoms: _501  and  _504
REMARK  195  A    between atoms: _504  and  _505
REMARK  196  A    between atoms: _508  and  _510
REMARK  197  A    between atoms: _510  and  _511
REMARK  198  A    between atoms: _510  and  _513
REMARK  199  A    between atoms: _513  and  _514
REMARK  200  A    between atoms: _519  and  _520
REMARK  201  A    between atoms: _522  and  _524
REMARK  202  A    between atoms: _524  and  _525
REMARK  203  A    between atoms: _524  and  _527
REMARK  204  A    between atoms: _527  and  _528
REMARK  205  A    between atoms: _530  and  _532
REMARK  206  A    between atoms: _532  and  _533
REMARK  207  A    between atoms: _532  and  _535
REMARK  208  A    between atoms: _535  and  _536
REMARK  209  A    between atoms: _542  and  _544
REMARK  210  A    between atoms: _544  and  _545
REMARK  211  A    between atoms: _544  and  _547
REMARK  212  A    between atoms: _547  and  _548
REMARK  213  A    between atoms: _551  and  _553
REMARK  214  A    between atoms: _553  and  _554
REMARK  215  A    between atoms: _553  and  _556
REMARK  216  A    between atoms: _556  and  _557
REMARK  217  A    between atoms: _559  and  _561
REMARK  218  A    between atoms: _561  and  _562
REMARK  219  A    between atoms: _561  and  _564
REMARK  220  A    between atoms: _564  and  _565
REMARK  221  A    between atoms: _570  and  _572
REMARK  222  A    between atoms: _572  and  _573
REMARK  223  A    between atoms: _572  and  _575
REMARK  224  A    between atoms: _575  and  _576
REMARK  225  A    between atoms: _581  and  _583
REMARK  226  A    between atoms: _583  and  _584
REMARK  227  A    between atoms: _583  and  _586
REMARK  228  A    between atoms: _586  and  _587
REMARK  229  A    between atoms: _590  and  _592
REMARK  230  A    between atoms: _592  and  _593
REMARK  231  A    between atoms: _592  and  _595
REMARK  232  A    between atoms: _595  and  _596
REMARK  233  A    between atoms: _601  and  _602
REMARK  234  A    between atoms: _604  and  _606
REMARK  235  A    between atoms: _606  and  _607
REMARK  236  A    between atoms: _606  and  _609
REMARK  237  A    between atoms: _609  and  _610
REMARK  238  A    between atoms: _615  and  _616
REMARK  239  A    between atoms: _618  and  _620
REMARK  240  A    between atoms: _620  and  _621
REMARK  241  A    between atoms: _620  and  _623
REMARK  242  A    between atoms: _626  and  _628
REMARK  243  A    between atoms: _628  and  _629
REMARK  244  A    between atoms: _628  and  _631
REMARK  245  A    between atoms: _631  and  _632
REMARK  246  A    between atoms: _637  and  _639
REMARK  247  A    between atoms: _639  and  _640
REMARK  248  A    between atoms: _643  and  _645
REMARK  249  A    between atoms: _645  and  _646
REMARK  250  A    between atoms: _645  and  _648
REMARK  251  A    between atoms: _648  and  _649
REMARK  252  A    between atoms: _649  and  _650
REMARK  253  A    between atoms: _650  and  _651
REMARK  254  A    between atoms: _660  and  _662
REMARK  255  A    between atoms: _662  and  _663
REMARK  256  A    between atoms: _662  and  _665
REMARK  257  A    between atoms: _665  and  _666
REMARK  258  A    between atoms: _669  and  _671
REMARK  259  A    between atoms: _671  and  _672
REMARK  260  A    between atoms: _671  and  _674
REMARK  261  A    between atoms: _674  and  _675
REMARK  262  A    between atoms: _678  and  _680
REMARK  263  A    between atoms: _680  and  _681
REMARK  264  A    between atoms: _680  and  _683
REMARK  265  A    between atoms: _683  and  _684
REMARK                            x       y       z     vdW  Elec       q    Type
REMARK                         _______ _______ _______ _____ _____    ______ ____
ROOT
ATOM      1  O   HOH     1       8.695  13.155   7.010  0.00  0.00    +0.000 OA
ENDROOT
TORSDOF 0
REMARK  Name = ../refined-set-2016/1b9j/1b9j_pocket.pdb
REMARK  265 active torsions:
REMARK  status: ('A' for Active; 'I' for Inactive)
REMARK    1  A    between atoms: _1  and  _3
REMARK    2  A    between atoms: _3  and  _4
REMARK    3  A    between atoms: _3  and  _6
REMARK    4  A    between atoms: _6  and  _7
REMARK    5  A    between atoms: _12  and  _14
REMARK    6  A    between atoms: _14  and  _15
REMARK    7  A    between atoms: _17  and  _19
REMARK    8  A    between atoms: _19  and  _20
REMARK    9  A    between atoms: _19  and  _22
REMARK   10  A    between atoms: _22  and  _23
REMARK   11  A    between atoms: _25  and  _27
REMARK   12  A    between atoms: _27  and  _28
REMARK   13  A    between atoms: _27  and  _30
REMARK   14  A    between atoms: _30  and  _31
REMARK   15  A    between atoms: _31  and  _32
REMARK   16  A    between atoms: _37  and  _39
REMARK   17  A    between atoms: _39  and  _40
REMARK   18  A    between atoms: _39  and  _42
REMARK   19  A    between atoms: _42  and  _43
REMARK   20  A    between atoms: _46  and  _48
REMARK   21  A    between atoms: _48  and  _49
REMARK   22  A    between atoms: _48  and  _51
REMARK   23  A    between atoms: _51  and  _52
REMARK   24  A    between atoms: _52  and  _53
REMARK   25  A    between atoms: _56  and  _58
REMARK   26  A    between atoms: _58  and  _59
REMARK   27  A    between atoms: _61  and  _63
REMARK   28  A    between atoms: _63  and  _64
REMARK   29  A    between atoms: _63  and  _66
REMARK   30  A    between atoms: _70  and  _71
REMARK   31  A    between atoms: _76  and  _78
REMARK   32  A    between atoms: _78  and  _79
REMARK   33  A    between atoms: _78  and  _81
REMARK   34  A    between atoms: _81  and  _82
REMARK   35  A    between atoms: _82  and  _83
REMARK   36  A    between atoms: _86  and  _88
REMARK   37  A    between atoms: _88  and  _89
REMARK   38  A    between atoms: _88  and  _91
REMARK   39  A    between atoms: _91  and  _92
REMARK   40  A    between atoms: _94  and  _96
REMARK   41  A    between atoms: _96  and  _97
REMARK   42  A    between atoms: _96  and  _99
REMARK   43  A    between atoms: _99  and  _100
REMARK   44  A    between atoms: _105  and  _107
REMARK   45  A    between atoms: _107  and  _108
REMARK   46  A    between atoms: _107  and  _110
REMARK   47  A    between atoms: _110  and  _111
REMARK   48  A    between atoms: _111  and  _112
REMARK   49  A    between atoms: _112  and  _113
REMARK   50  A    between atoms: _123  and  _124
REMARK   51  A    between atoms: _129  and  _131
REMARK   52  A    between atoms: _131  and  _132
REMARK   53  A    between atoms: _131  and  _134
REMARK   54  A    between atoms: _134  and  _135
REMARK   55  A    between atoms: _140  and  _141
REMARK   56  A    between atoms: _143  and  _145
REMARK   57  A    between atoms: _145  and  _146
REMARK   58  A    between atoms: _145  and  _148
REMARK   59  A    between atoms: _148  and  _149
REMARK   60  A    between atoms: _154  and  _155
REMARK   61  A    between atoms: _157  and  _159
REMARK   62  A    between atoms: _159  and  _160
REMARK   63  A    between atoms: _159  and  _162
REMARK   64  A    between atoms: _165  and  _167
REMARK   65  A    between atoms: _167  and  _168
REMARK   66  A    between atoms: _167  and  _170
REMARK   67  A    between atoms: _170  and  _171
REMARK   68  A    between atoms: _177  and  _178
REMARK   69  A    between atoms: _183  and  _185
REMARK   70  A    between atoms: _185  and  _186
REMARK   71  A    between atoms: _185  and  _188
REMARK   72  A    between atoms: _188  and  _189
REMARK   73  A    between atoms: _191  and  _193
REMARK   74  A    between atoms: _193  and  _194
REMARK   75  A    between atoms: _193  and  _196
REMARK   76  A    between atoms: _196  and  _197
REMARK   77  A    between atoms: _197  and  _198
REMARK   78  A    between atoms: _201  and  _203
REMARK   79  A    between atoms: _203  and  _204
REMARK   80  A    between atoms: _203  and  _206
REMARK   81  A    between atoms: _206  and  _207
REMARK   82  A    between atoms: _212  and  _213
REMARK   83  A    between atoms: _215  and  _217
REMARK   84  A    between atoms: _217  and  _218
REMARK   85  A    between atoms: _217  and  _220
REMARK   86  A    between atoms: _220  and  _221
REMARK   87  A    between atoms: _226  and  _228
REMARK   88  A    between atoms: _228  and  _229
REMARK   89  A    between atoms: _228  and  _231
REMARK   90  A    between atoms: _231  and  _232
REMARK   91  A    between atoms: _237  and  _239
REMARK   92  A    between atoms: _239  and  _240
REMARK   93  A    between atoms: _239  and  _242
REMARK   94  A    between atoms: _242  and  _243
REMARK   95  A    between atoms: _243  and  _244
REMARK   96  A    between atoms: _246  and  _248
REMARK   97  A    between atoms: _248  and  _249
REMARK   98  A    between atoms: _248  and  _251
REMARK   99  A    between atoms: _251  and  _252
REMARK  100  A    between atoms: _257  and  _258
REMARK  101  A    between atoms: _260  and  _262
REMARK  102  A    between atoms: _262  and  _263
REMARK  103  A    between atoms: _262  and  _265
REMARK  104  A    between atoms: _265  and  _266
REMARK  105  A    between atoms: _269  and  _271
REMARK  106  A    between atoms: _271  and  _272
REMARK  107  A    between atoms: _271  and  _274
REMARK  108  A    between atoms: _274  and  _275
REMARK  109  A    between atoms: _275  and  _492
REMARK  110  A    between atoms: _276  and  _278
REMARK  111  A    between atoms: _278  and  _279
REMARK  112  A    between atoms: _278  and  _281
REMARK  113  A    between atoms: _281  and  _282
REMARK  114  A    between atoms: _285  and  _287
REMARK  115  A    between atoms: _287  and  _288
REMARK  116  A    between atoms: _287  and  _290
REMARK  117  A    between atoms: _290  and  _291
REMARK  118  A    between atoms: _296  and  _297
REMARK  119  A    between atoms: _299  and  _301
REMARK  120  A    between atoms: _301  and  _302
REMARK  121  A    between atoms: _301  and  _304
REMARK  122  A    between atoms: _304  and  _305
REMARK  123  A    between atoms: _310  and  _311
REMARK  124  A    between atoms: _313  and  _315
REMARK  125  A    between atoms: _315  and  _316
REMARK  126  A    between atoms: _315  and  _318
REMARK  127  A    between atoms: _318  and  _319
REMARK  128  A    between atoms: _319  and  _320
REMARK  129  A    between atoms: _323  and  _325
REMARK  130  A    between atoms: _325  and  _326
REMARK  131  A    between atoms: _325  and  _328
REMARK  132  A    between atoms: _328  and  _329
REMARK  133  A    between atoms: _334  and  _335
REMARK  134  A    between atoms: _337  and  _339
REMARK  135  A    between atoms: _339  and  _340
REMARK  136  A    between atoms: _339  and  _342
REMARK  137  A    between atoms: _342  and  _343
REMARK  138  A    between atoms: _348  and  _350
REMARK  139  A    between atoms: _350  and  _351
REMARK  140  A    between atoms: _350  and  _353
REMARK  141  A    between atoms: _353  and  _354
REMARK  142  A    between atoms: _357  and  _359
REMARK  143  A    between atoms: _359  and  _360
REMARK  144  A    between atoms: _359  and  _362
REMARK  145  A    between atoms: _362  and  _363
REMARK  146  A    between atoms: _368  and  _370
REMARK  147  A    between atoms: _370  and  _371
REMARK  148  A    between atoms: _370  and  _373
REMARK  149  A    between atoms: _373  and  _374
REMARK  150  A    between atoms: _384  and  _386
REMARK  151  A    between atoms: _386  and  _387
REMARK  152  A    between atoms: _386  and  _389
REMARK  153  A    between atoms: _389  and  _390
REMARK  154  A    between atoms: _396  and  _398
REMARK  155  A    between atoms: _398  and  _399
REMARK  156  A    between atoms: _398  and  _401
REMARK  157  A    between atoms: _401  and  _402
REMARK  158  A    between atoms: _405  and  _407
REMARK  159  A    between atoms: _407  and  _408
REMARK  160  A    between atoms: _407  and  _410
REMARK  161  A    between atoms: _410  and  _411
REMARK  162  A    between atoms: _414  and  _416
REMARK  163  A    between atoms: _416  and  _417
REMARK  164  A    between atoms: _416  and  _419
REMARK  165  A    between atoms: _419  and  _420
REMARK  166  A    between atoms: _420  and  _421
REMARK  167  A    between atoms: _421  and  _422
REMARK  168  A    between atoms: _431  and  _433
REMARK  169  A    between atoms: _433  and  _434
REMARK  170  A    between atoms: _433  and  _436
REMARK  171  A    between atoms: _436  and  _437
REMARK  172  A    between atoms: _442  and  _444
REMARK  173  A    between atoms: _444  and  _445
REMARK  174  A    between atoms: _444  and  _447
REMARK  175  A    between atoms: _447  and  _448
REMARK  176  A    between atoms: _448  and  _449
REMARK  177  A    between atoms: _449  and  _450
REMARK  178  A    between atoms: _459  and  _461
REMARK  179  A    between atoms: _461  and  _462
REMARK  180  A    between atoms: _465  and  _467
REMARK  181  A    between atoms: _467  and  _468
REMARK  182  A    between atoms: _470  and  _472
REMARK  183  A    between atoms: _472  and  _473
REMARK  184  A    between atoms: _472  and  _475
REMARK  185  A    between atoms: _475  and  _476
REMARK  186  A    between atoms: _486  and  _488
REMARK  187  A    between atoms: _488  and  _489
REMARK  188  A    between atoms: _488  and  _491
REMARK  189  A    between atoms: _491  and  _492
REMARK  190  A    between atoms: _493  and  _495
REMARK  191  A    between atoms: _495  and  _496
REMARK  192  A    between atoms: _499  and  _501
REMARK  193  A    between atoms: _501  and  _502
REMARK  194  A    between atoms: _501  and  _504
REMARK  195  A    between atoms: _504  and  _505
REMARK  196  A    between atoms: _508  and  _510
REMARK  197  A    between atoms: _510  and  _511
REMARK  198  A    between atoms: _510  and  _513
REMARK  199  A    between atoms: _513  and  _514
REMARK  200  A    between atoms: _519  and  _520
REMARK  201  A    between atoms: _522  and  _524
REMARK  202  A    between atoms: _524  and  _525
REMARK  203  A    between atoms: _524  and  _527
REMARK  204  A    between atoms: _527  and  _528
REMARK  205  A    between atoms: _530  and  _532
REMARK  206  A    between atoms: _532  and  _533
REMARK  207  A    between atoms: _532  and  _535
REMARK  208  A    between atoms: _535  and  _536
REMARK  209  A    between atoms: _542  and  _544
REMARK  210  A    between atoms: _544  and  _545
REMARK  211  A    between atoms: _544  and  _547
REMARK  212  A    between atoms: _547  and  _548
REMARK  213  A    between atoms: _551  and  _553
REMARK  214  A    between atoms: _553  and  _554
REMARK  215  A    between atoms: _553  and  _556
REMARK  216  A    between atoms: _556  and  _557
REMARK  217  A    between atoms: _559  and  _561
REMARK  218  A    between atoms: _561  and  _562
REMARK  219  A    between atoms: _561  and  _564
REMARK  220  A    between atoms: _564  and  _565
REMARK  221  A    between atoms: _570  and  _572
REMARK  222  A    between atoms: _572  and  _573
REMARK  223  A    between atoms: _572  and  _575
REMARK  224  A    between atoms: _575  and  _576
REMARK  225  A    between atoms: _581  and  _583
REMARK  226  A    between atoms: _583  and  _584
REMARK  227  A    between atoms: _583  and  _586
REMARK  228  A    between atoms: _586  and  _587
REMARK  229  A    between atoms: _590  and  _592
REMARK  230  A    between atoms: _592  and  _593
REMARK  231  A    between atoms: _592  and  _595
REMARK  232  A    between atoms: _595  and  _596
REMARK  233  A    between atoms: _601  and  _602
REMARK  234  A    between atoms: _604  and  _606
REMARK  235  A    between atoms: _606  and  _607
REMARK  236  A    between atoms: _606  and  _609
REMARK  237  A    between atoms: _609  and  _610
REMARK  238  A    between atoms: _615  and  _616
REMARK  239  A    between atoms: _618  and  _620
REMARK  240  A    between atoms: _620  and  _621
REMARK  241  A    between atoms: _620  and  _623
REMARK  242  A    between atoms: _626  and  _628
REMARK  243  A    between atoms: _628  and  _629
REMARK  244  A    between atoms: _628  and  _631
REMARK  245  A    between atoms: _631  and  _632
REMARK  246  A    between atoms: _637  and  _639
REMARK  247  A    between atoms: _639  and  _640
REMARK  248  A    between atoms: _643  and  _645
REMARK  249  A    between atoms: _645  and  _646
REMARK  250  A    between atoms: _645  and  _648
REMARK  251  A    between atoms: _648  and  _649
REMARK  252  A    between atoms: _649  and  _650
REMARK  253  A    between atoms: _650  and  _651
REMARK  254  A    between atoms: _660  and  _662
REMARK  255  A    between atoms: _662  and  _663
REMARK  256  A    between atoms: _662  and  _665
REMARK  257  A    between atoms: _665  and  _666
REMARK  258  A    between atoms: _669  and  _671
REMARK  259  A    between atoms: _671  and  _672
REMARK  260  A    between atoms: _671  and  _674
REMARK  261  A    between atoms: _674  and  _675
REMARK  262  A    between atoms: _678  and  _680
REMARK  263  A    between atoms: _680  and  _681
REMARK  264  A    between atoms: _680  and  _683
REMARK  265  A    between atoms: _683  and  _684
REMARK                            x       y       z     vdW  Elec       q    Type
REMARK                         _______ _______ _______ _____ _____    ______ ____
ROOT
ATOM      1  O   HOH     1       3.918  12.758  11.783  0.00  0.00    +0.000 OA
ENDROOT
TORSDOF 0
REMARK  Name = ../refined-set-2016/1b9j/1b9j_pocket.pdb
REMARK  265 active torsions:
REMARK  status: ('A' for Active; 'I' for Inactive)
REMARK    1  A    between atoms: _1  and  _3
REMARK    2  A    between atoms: _3  and  _4
REMARK    3  A    between atoms: _3  and  _6
REMARK    4  A    between atoms: _6  and  _7
REMARK    5  A    between atoms: _12  and  _14
REMARK    6  A    between atoms: _14  and  _15
REMARK    7  A    between atoms: _17  and  _19
REMARK    8  A    between atoms: _19  and  _20
REMARK    9  A    between atoms: _19  and  _22
REMARK   10  A    between atoms: _22  and  _23
REMARK   11  A    between atoms: _25  and  _27
REMARK   12  A    between atoms: _27  and  _28
REMARK   13  A    between atoms: _27  and  _30
REMARK   14  A    between atoms: _30  and  _31
REMARK   15  A    between atoms: _31  and  _32
REMARK   16  A    between atoms: _37  and  _39
REMARK   17  A    between atoms: _39  and  _40
REMARK   18  A    between atoms: _39  and  _42
REMARK   19  A    between atoms: _42  and  _43
REMARK   20  A    between atoms: _46  and  _48
REMARK   21  A    between atoms: _48  and  _49
REMARK   22  A    between atoms: _48  and  _51
REMARK   23  A    between atoms: _51  and  _52
REMARK   24  A    between atoms: _52  and  _53
REMARK   25  A    between atoms: _56  and  _58
REMARK   26  A    between atoms: _58  and  _59
REMARK   27  A    between atoms: _61  and  _63
REMARK   28  A    between atoms: _63  and  _64
REMARK   29  A    between atoms: _63  and  _66
REMARK   30  A    between atoms: _70  and  _71
REMARK   31  A    between atoms: _76  and  _78
REMARK   32  A    between atoms: _78  and  _79
REMARK   33  A    between atoms: _78  and  _81
REMARK   34  A    between atoms: _81  and  _82
REMARK   35  A    between atoms: _82  and  _83
REMARK   36  A    between atoms: _86  and  _88
REMARK   37  A    between atoms: _88  and  _89
REMARK   38  A    between atoms: _88  and  _91
REMARK   39  A    between atoms: _91  and  _92
REMARK   40  A    between atoms: _94  and  _96
REMARK   41  A    between atoms: _96  and  _97
REMARK   42  A    between atoms: _96  and  _99
REMARK   43  A    between atoms: _99  and  _100
REMARK   44  A    between atoms: _105  and  _107
REMARK   45  A    between atoms: _107  and  _108
REMARK   46  A    between atoms: _107  and  _110
REMARK   47  A    between atoms: _110  and  _111
REMARK   48  A    between atoms: _111  and  _112
REMARK   49  A    between atoms: _112  and  _113
REMARK   50  A    between atoms: _123  and  _124
REMARK   51  A    between atoms: _129  and  _131
REMARK   52  A    between atoms: _131  and  _132
REMARK   53  A    between atoms: _131  and  _134
REMARK   54  A    between atoms: _134  and  _135
REMARK   55  A    between atoms: _140  and  _141
REMARK   56  A    between atoms: _143  and  _145
REMARK   57  A    between atoms: _145  and  _146
REMARK   58  A    between atoms: _145  and  _148
REMARK   59  A    between atoms: _148  and  _149
REMARK   60  A    between atoms: _154  and  _155
REMARK   61  A    between atoms: _157  and  _159
REMARK   62  A    between atoms: _159  and  _160
REMARK   63  A    between atoms: _159  and  _162
REMARK   64  A    between atoms: _165  and  _167
REMARK   65  A    between atoms: _167  and  _168
REMARK   66  A    between atoms: _167  and  _170
REMARK   67  A    between atoms: _170  and  _171
REMARK   68  A    between atoms: _177  and  _178
REMARK   69  A    between atoms: _183  and  _185
REMARK   70  A    between atoms: _185  and  _186
REMARK   71  A    between atoms: _185  and  _188
REMARK   72  A    between atoms: _188  and  _189
REMARK   73  A    between atoms: _191  and  _193
REMARK   74  A    between atoms: _193  and  _194
REMARK   75  A    between atoms: _193  and  _196
REMARK   76  A    between atoms: _196  and  _197
REMARK   77  A    between atoms: _197  and  _198
REMARK   78  A    between atoms: _201  and  _203
REMARK   79  A    between atoms: _203  and  _204
REMARK   80  A    between atoms: _203  and  _206
REMARK   81  A    between atoms: _206  and  _207
REMARK   82  A    between atoms: _212  and  _213
REMARK   83  A    between atoms: _215  and  _217
REMARK   84  A    between atoms: _217  and  _218
REMARK   85  A    between atoms: _217  and  _220
REMARK   86  A    between atoms: _220  and  _221
REMARK   87  A    between atoms: _226  and  _228
REMARK   88  A    between atoms: _228  and  _229
REMARK   89  A    between atoms: _228  and  _231
REMARK   90  A    between atoms: _231  and  _232
REMARK   91  A    between atoms: _237  and  _239
REMARK   92  A    between atoms: _239  and  _240
REMARK   93  A    between atoms: _239  and  _242
REMARK   94  A    between atoms: _242  and  _243
REMARK   95  A    between atoms: _243  and  _244
REMARK   96  A    between atoms: _246  and  _248
REMARK   97  A    between atoms: _248  and  _249
REMARK   98  A    between atoms: _248  and  _251
REMARK   99  A    between atoms: _251  and  _252
REMARK  100  A    between atoms: _257  and  _258
REMARK  101  A    between atoms: _260  and  _262
REMARK  102  A    between atoms: _262  and  _263
REMARK  103  A    between atoms: _262  and  _265
REMARK  104  A    between atoms: _265  and  _266
REMARK  105  A    between atoms: _269  and  _271
REMARK  106  A    between atoms: _271  and  _272
REMARK  107  A    between atoms: _271  and  _274
REMARK  108  A    between atoms: _274  and  _275
REMARK  109  A    between atoms: _275  and  _492
REMARK  110  A    between atoms: _276  and  _278
REMARK  111  A    between atoms: _278  and  _279
REMARK  112  A    between atoms: _278  and  _281
REMARK  113  A    between atoms: _281  and  _282
REMARK  114  A    between atoms: _285  and  _287
REMARK  115  A    between atoms: _287  and  _288
REMARK  116  A    between atoms: _287  and  _290
REMARK  117  A    between atoms: _290  and  _291
REMARK  118  A    between atoms: _296  and  _297
REMARK  119  A    between atoms: _299  and  _301
REMARK  120  A    between atoms: _301  and  _302
REMARK  121  A    between atoms: _301  and  _304
REMARK  122  A    between atoms: _304  and  _305
REMARK  123  A    between atoms: _310  and  _311
REMARK  124  A    between atoms: _313  and  _315
REMARK  125  A    between atoms: _315  and  _316
REMARK  126  A    between atoms: _315  and  _318
REMARK  127  A    between atoms: _318  and  _319
REMARK  128  A    between atoms: _319  and  _320
REMARK  129  A    between atoms: _323  and  _325
REMARK  130  A    between atoms: _325  and  _326
REMARK  131  A    between atoms: _325  and  _328
REMARK  132  A    between atoms: _328  and  _329
REMARK  133  A    between atoms: _334  and  _335
REMARK  134  A    between atoms: _337  and  _339
REMARK  135  A    between atoms: _339  and  _340
REMARK  136  A    between atoms: _339  and  _342
REMARK  137  A    between atoms: _342  and  _343
REMARK  138  A    between atoms: _348  and  _350
REMARK  139  A    between atoms: _350  and  _351
REMARK  140  A    between atoms: _350  and  _353
REMARK  141  A    between atoms: _353  and  _354
REMARK  142  A    between atoms: _357  and  _359
REMARK  143  A    between atoms: _359  and  _360
REMARK  144  A    between atoms: _359  and  _362
REMARK  145  A    between atoms: _362  and  _363
REMARK  146  A    between atoms: _368  and  _370
REMARK  147  A    between atoms: _370  and  _371
REMARK  148  A    between atoms: _370  and  _373
REMARK  149  A    between atoms: _373  and  _374
REMARK  150  A    between atoms: _384  and  _386
REMARK  151  A    between atoms: _386  and  _387
REMARK  152  A    between atoms: _386  and  _389
REMARK  153  A    between atoms: _389  and  _390
REMARK  154  A    between atoms: _396  and  _398
REMARK  155  A    between atoms: _398  and  _399
REMARK  156  A    between atoms: _398  and  _401
REMARK  157  A    between atoms: _401  and  _402
REMARK  158  A    between atoms: _405  and  _407
REMARK  159  A    between atoms: _407  and  _408
REMARK  160  A    between atoms: _407  and  _410
REMARK  161  A    between atoms: _410  and  _411
REMARK  162  A    between atoms: _414  and  _416
REMARK  163  A    between atoms: _416  and  _417
REMARK  164  A    between atoms: _416  and  _419
REMARK  165  A    between atoms: _419  and  _420
REMARK  166  A    between atoms: _420  and  _421
REMARK  167  A    between atoms: _421  and  _422
REMARK  168  A    between atoms: _431  and  _433
REMARK  169  A    between atoms: _433  and  _434
REMARK  170  A    between atoms: _433  and  _436
REMARK  171  A    between atoms: _436  and  _437
REMARK  172  A    between atoms: _442  and  _444
REMARK  173  A    between atoms: _444  and  _445
REMARK  174  A    between atoms: _444  and  _447
REMARK  175  A    between atoms: _447  and  _448
REMARK  176  A    between atoms: _448  and  _449
REMARK  177  A    between atoms: _449  and  _450
REMARK  178  A    between atoms: _459  and  _461
REMARK  179  A    between atoms: _461  and  _462
REMARK  180  A    between atoms: _465  and  _467
REMARK  181  A    between atoms: _467  and  _468
REMARK  182  A    between atoms: _470  and  _472
REMARK  183  A    between atoms: _472  and  _473
REMARK  184  A    between atoms: _472  and  _475
REMARK  185  A    between atoms: _475  and  _476
REMARK  186  A    between atoms: _486  and  _488
REMARK  187  A    between atoms: _488  and  _489
REMARK  188  A    between atoms: _488  and  _491
REMARK  189  A    between atoms: _491  and  _492
REMARK  190  A    between atoms: _493  and  _495
REMARK  191  A    between atoms: _495  and  _496
REMARK  192  A    between atoms: _499  and  _501
REMARK  193  A    between atoms: _501  and  _502
REMARK  194  A    between atoms: _501  and  _504
REMARK  195  A    between atoms: _504  and  _505
REMARK  196  A    between atoms: _508  and  _510
REMARK  197  A    between atoms: _510  and  _511
REMARK  198  A    between atoms: _510  and  _513
REMARK  199  A    between atoms: _513  and  _514
REMARK  200  A    between atoms: _519  and  _520
REMARK  201  A    between atoms: _522  and  _524
REMARK  202  A    between atoms: _524  and  _525
REMARK  203  A    between atoms: _524  and  _527
REMARK  204  A    between atoms: _527  and  _528
REMARK  205  A    between atoms: _530  and  _532
REMARK  206  A    between atoms: _532  and  _533
REMARK  207  A    between atoms: _532  and  _535
REMARK  208  A    between atoms: _535  and  _536
REMARK  209  A    between atoms: _542  and  _544
REMARK  210  A    between atoms: _544  and  _545
REMARK  211  A    between atoms: _544  and  _547
REMARK  212  A    between atoms: _547  and  _548
REMARK  213  A    between atoms: _551  and  _553
REMARK  214  A    between atoms: _553  and  _554
REMARK  215  A    between atoms: _553  and  _556
REMARK  216  A    between atoms: _556  and  _557
REMARK  217  A    between atoms: _559  and  _561
REMARK  218  A    between atoms: _561  and  _562
REMARK  219  A    between atoms: _561  and  _564
REMARK  220  A    between atoms: _564  and  _565
REMARK  221  A    between atoms: _570  and  _572
REMARK  222  A    between atoms: _572  and  _573
REMARK  223  A    between atoms: _572  and  _575
REMARK  224  A    between atoms: _575  and  _576
REMARK  225  A    between atoms: _581  and  _583
REMARK  226  A    between atoms: _583  and  _584
REMARK  227  A    between atoms: _583  and  _586
REMARK  228  A    between atoms: _586  and  _587
REMARK  229  A    between atoms: _590  and  _592
REMARK  230  A    between atoms: _592  and  _593
REMARK  231  A    between atoms: _592  and  _595
REMARK  232  A    between atoms: _595  and  _596
REMARK  233  A    between atoms: _601  and  _602
REMARK  234  A    between atoms: _604  and  _606
REMARK  235  A    between atoms: _606  and  _607
REMARK  236  A    between atoms: _606  and  _609
REMARK  237  A    between atoms: _609  and  _610
REMARK  238  A    between atoms: _615  and  _616
REMARK  239  A    between atoms: _618  and  _620
REMARK  240  A    between atoms: _620  and  _621
REMARK  241  A    between atoms: _620  and  _623
REMARK  242  A    between atoms: _626  and  _628
REMARK  243  A    between atoms: _628  and  _629
REMARK  244  A    between atoms: _628  and  _631
REMARK  245  A    between atoms: _631  and  _632
REMARK  246  A    between atoms: _637  and  _639
REMARK  247  A    between atoms: _639  and  _640
REMARK  248  A    between atoms: _643  and  _645
REMARK  249  A    between atoms: _645  and  _646
REMARK  250  A    between atoms: _645  and  _648
REMARK  251  A    between atoms: _648  and  _649
REMARK  252  A    between atoms: _649  and  _650
REMARK  253  A    between atoms: _650  and  _651
REMARK  254  A    between atoms: _660  and  _662
REMARK  255  A    between atoms: _662  and  _663
REMARK  256  A    between atoms: _662  and  _665
REMARK  257  A    between atoms: _665  and  _666
REMARK  258  A    between atoms: _669  and  _671
REMARK  259  A    between atoms: _671  and  _672
REMARK  260  A    between atoms: _671  and  _674
REMARK  261  A    between atoms: _674  and  _675
REMARK  262  A    between atoms: _678  and  _680
REMARK  263  A    between atoms: _680  and  _681
REMARK  264  A    between atoms: _680  and  _683
REMARK  265  A    between atoms: _683  and  _684
REMARK                            x       y       z     vdW  Elec       q    Type
REMARK                         _______ _______ _______ _____ _____    ______ ____
ROOT
ATOM      1  O   HOH     1      10.262  15.815   4.745  0.00  0.00    +0.000 OA
ENDROOT
TORSDOF 0
REMARK  Name = ../refined-set-2016/1b9j/1b9j_pocket.pdb
REMARK  265 active torsions:
REMARK  status: ('A' for Active; 'I' for Inactive)
REMARK    1  A    between atoms: _1  and  _3
REMARK    2  A    between atoms: _3  and  _4
REMARK    3  A    between atoms: _3  and  _6
REMARK    4  A    between atoms: _6  and  _7
REMARK    5  A    between atoms: _12  and  _14
REMARK    6  A    between atoms: _14  and  _15
REMARK    7  A    between atoms: _17  and  _19
REMARK    8  A    between atoms: _19  and  _20
REMARK    9  A    between atoms: _19  and  _22
REMARK   10  A    between atoms: _22  and  _23
REMARK   11  A    between atoms: _25  and  _27
REMARK   12  A    between atoms: _27  and  _28
REMARK   13  A    between atoms: _27  and  _30
REMARK   14  A    between atoms: _30  and  _31
REMARK   15  A    between atoms: _31  and  _32
REMARK   16  A    between atoms: _37  and  _39
REMARK   17  A    between atoms: _39  and  _40
REMARK   18  A    between atoms: _39  and  _42
REMARK   19  A    between atoms: _42  and  _43
REMARK   20  A    between atoms: _46  and  _48
REMARK   21  A    between atoms: _48  and  _49
REMARK   22  A    between atoms: _48  and  _51
REMARK   23  A    between atoms: _51  and  _52
REMARK   24  A    between atoms: _52  and  _53
REMARK   25  A    between atoms: _56  and  _58
REMARK   26  A    between atoms: _58  and  _59
REMARK   27  A    between atoms: _61  and  _63
REMARK   28  A    between atoms: _63  and  _64
REMARK   29  A    between atoms: _63  and  _66
REMARK   30  A    between atoms: _70  and  _71
REMARK   31  A    between atoms: _76  and  _78
REMARK   32  A    between atoms: _78  and  _79
REMARK   33  A    between atoms: _78  and  _81
REMARK   34  A    between atoms: _81  and  _82
REMARK   35  A    between atoms: _82  and  _83
REMARK   36  A    between atoms: _86  and  _88
REMARK   37  A    between atoms: _88  and  _89
REMARK   38  A    between atoms: _88  and  _91
REMARK   39  A    between atoms: _91  and  _92
REMARK   40  A    between atoms: _94  and  _96
REMARK   41  A    between atoms: _96  and  _97
REMARK   42  A    between atoms: _96  and  _99
REMARK   43  A    between atoms: _99  and  _100
REMARK   44  A    between atoms: _105  and  _107
REMARK   45  A    between atoms: _107  and  _108
REMARK   46  A    between atoms: _107  and  _110
REMARK   47  A    between atoms: _110  and  _111
REMARK   48  A    between atoms: _111  and  _112
REMARK   49  A    between atoms: _112  and  _113
REMARK   50  A    between atoms: _123  and  _124
REMARK   51  A    between atoms: _129  and  _131
REMARK   52  A    between atoms: _131  and  _132
REMARK   53  A    between atoms: _131  and  _134
REMARK   54  A    between atoms: _134  and  _135
REMARK   55  A    between atoms: _140  and  _141
REMARK   56  A    between atoms: _143  and  _145
REMARK   57  A    between atoms: _145  and  _146
REMARK   58  A    between atoms: _145  and  _148
REMARK   59  A    between atoms: _148  and  _149
REMARK   60  A    between atoms: _154  and  _155
REMARK   61  A    between atoms: _157  and  _159
REMARK   62  A    between atoms: _159  and  _160
REMARK   63  A    between atoms: _159  and  _162
REMARK   64  A    between atoms: _165  and  _167
REMARK   65  A    between atoms: _167  and  _168
REMARK   66  A    between atoms: _167  and  _170
REMARK   67  A    between atoms: _170  and  _171
REMARK   68  A    between atoms: _177  and  _178
REMARK   69  A    between atoms: _183  and  _185
REMARK   70  A    between atoms: _185  and  _186
REMARK   71  A    between atoms: _185  and  _188
REMARK   72  A    between atoms: _188  and  _189
REMARK   73  A    between atoms: _191  and  _193
REMARK   74  A    between atoms: _193  and  _194
REMARK   75  A    between atoms: _193  and  _196
REMARK   76  A    between atoms: _196  and  _197
REMARK   77  A    between atoms: _197  and  _198
REMARK   78  A    between atoms: _201  and  _203
REMARK   79  A    between atoms: _203  and  _204
REMARK   80  A    between atoms: _203  and  _206
REMARK   81  A    between atoms: _206  and  _207
REMARK   82  A    between atoms: _212  and  _213
REMARK   83  A    between atoms: _215  and  _217
REMARK   84  A    between atoms: _217  and  _218
REMARK   85  A    between atoms: _217  and  _220
REMARK   86  A    between atoms: _220  and  _221
REMARK   87  A    between atoms: _226  and  _228
REMARK   88  A    between atoms: _228  and  _229
REMARK   89  A    between atoms: _228  and  _231
REMARK   90  A    between atoms: _231  and  _232
REMARK   91  A    between atoms: _237  and  _239
REMARK   92  A    between atoms: _239  and  _240
REMARK   93  A    between atoms: _239  and  _242
REMARK   94  A    between atoms: _242  and  _243
REMARK   95  A    between atoms: _243  and  _244
REMARK   96  A    between atoms: _246  and  _248
REMARK   97  A    between atoms: _248  and  _249
REMARK   98  A    between atoms: _248  and  _251
REMARK   99  A    between atoms: _251  and  _252
REMARK  100  A    between atoms: _257  and  _258
REMARK  101  A    between atoms: _260  and  _262
REMARK  102  A    between atoms: _262  and  _263
REMARK  103  A    between atoms: _262  and  _265
REMARK  104  A    between atoms: _265  and  _266
REMARK  105  A    between atoms: _269  and  _271
REMARK  106  A    between atoms: _271  and  _272
REMARK  107  A    between atoms: _271  and  _274
REMARK  108  A    between atoms: _274  and  _275
REMARK  109  A    between atoms: _275  and  _492
REMARK  110  A    between atoms: _276  and  _278
REMARK  111  A    between atoms: _278  and  _279
REMARK  112  A    between atoms: _278  and  _281
REMARK  113  A    between atoms: _281  and  _282
REMARK  114  A    between atoms: _285  and  _287
REMARK  115  A    between atoms: _287  and  _288
REMARK  116  A    between atoms: _287  and  _290
REMARK  117  A    between atoms: _290  and  _291
REMARK  118  A    between atoms: _296  and  _297
REMARK  119  A    between atoms: _299  and  _301
REMARK  120  A    between atoms: _301  and  _302
REMARK  121  A    between atoms: _301  and  _304
REMARK  122  A    between atoms: _304  and  _305
REMARK  123  A    between atoms: _310  and  _311
REMARK  124  A    between atoms: _313  and  _315
REMARK  125  A    between atoms: _315  and  _316
REMARK  126  A    between atoms: _315  and  _318
REMARK  127  A    between atoms: _318  and  _319
REMARK  128  A    between atoms: _319  and  _320
REMARK  129  A    between atoms: _323  and  _325
REMARK  130  A    between atoms: _325  and  _326
REMARK  131  A    between atoms: _325  and  _328
REMARK  132  A    between atoms: _328  and  _329
REMARK  133  A    between atoms: _334  and  _335
REMARK  134  A    between atoms: _337  and  _339
REMARK  135  A    between atoms: _339  and  _340
REMARK  136  A    between atoms: _339  and  _342
REMARK  137  A    between atoms: _342  and  _343
REMARK  138  A    between atoms: _348  and  _350
REMARK  139  A    between atoms: _350  and  _351
REMARK  140  A    between atoms: _350  and  _353
REMARK  141  A    between atoms: _353  and  _354
REMARK  142  A    between atoms: _357  and  _359
REMARK  143  A    between atoms: _359  and  _360
REMARK  144  A    between atoms: _359  and  _362
REMARK  145  A    between atoms: _362  and  _363
REMARK  146  A    between atoms: _368  and  _370
REMARK  147  A    between atoms: _370  and  _371
REMARK  148  A    between atoms: _370  and  _373
REMARK  149  A    between atoms: _373  and  _374
REMARK  150  A    between atoms: _384  and  _386
REMARK  151  A    between atoms: _386  and  _387
REMARK  152  A    between atoms: _386  and  _389
REMARK  153  A    between atoms: _389  and  _390
REMARK  154  A    between atoms: _396  and  _398
REMARK  155  A    between atoms: _398  and  _399
REMARK  156  A    between atoms: _398  and  _401
REMARK  157  A    between atoms: _401  and  _402
REMARK  158  A    between atoms: _405  and  _407
REMARK  159  A    between atoms: _407  and  _408
REMARK  160  A    between atoms: _407  and  _410
REMARK  161  A    between atoms: _410  and  _411
REMARK  162  A    between atoms: _414  and  _416
REMARK  163  A    between atoms: _416  and  _417
REMARK  164  A    between atoms: _416  and  _419
REMARK  165  A    between atoms: _419  and  _420
REMARK  166  A    between atoms: _420  and  _421
REMARK  167  A    between atoms: _421  and  _422
REMARK  168  A    between atoms: _431  and  _433
REMARK  169  A    between atoms: _433  and  _434
REMARK  170  A    between atoms: _433  and  _436
REMARK  171  A    between atoms: _436  and  _437
REMARK  172  A    between atoms: _442  and  _444
REMARK  173  A    between atoms: _444  and  _445
REMARK  174  A    between atoms: _444  and  _447
REMARK  175  A    between atoms: _447  and  _448
REMARK  176  A    between atoms: _448  and  _449
REMARK  177  A    between atoms: _449  and  _450
REMARK  178  A    between atoms: _459  and  _461
REMARK  179  A    between atoms: _461  and  _462
REMARK  180  A    between atoms: _465  and  _467
REMARK  181  A    between atoms: _467  and  _468
REMARK  182  A    between atoms: _470  and  _472
REMARK  183  A    between atoms: _472  and  _473
REMARK  184  A    between atoms: _472  and  _475
REMARK  185  A    between atoms: _475  and  _476
REMARK  186  A    between atoms: _486  and  _488
REMARK  187  A    between atoms: _488  and  _489
REMARK  188  A    between atoms: _488  and  _491
REMARK  189  A    between atoms: _491  and  _492
REMARK  190  A    between atoms: _493  and  _495
REMARK  191  A    between atoms: _495  and  _496
REMARK  192  A    between atoms: _499  and  _501
REMARK  193  A    between atoms: _501  and  _502
REMARK  194  A    between atoms: _501  and  _504
REMARK  195  A    between atoms: _504  and  _505
REMARK  196  A    between atoms: _508  and  _510
REMARK  197  A    between atoms: _510  and  _511
REMARK  198  A    between atoms: _510  and  _513
REMARK  199  A    between atoms: _513  and  _514
REMARK  200  A    between atoms: _519  and  _520
REMARK  201  A    between atoms: _522  and  _524
REMARK  202  A    between atoms: _524  and  _525
REMARK  203  A    between atoms: _524  and  _527
REMARK  204  A    between atoms: _527  and  _528
REMARK  205  A    between atoms: _530  and  _532
REMARK  206  A    between atoms: _532  and  _533
REMARK  207  A    between atoms: _532  and  _535
REMARK  208  A    between atoms: _535  and  _536
REMARK  209  A    between atoms: _542  and  _544
REMARK  210  A    between atoms: _544  and  _545
REMARK  211  A    between atoms: _544  and  _547
REMARK  212  A    between atoms: _547  and  _548
REMARK  213  A    between atoms: _551  and  _553
REMARK  214  A    between atoms: _553  and  _554
REMARK  215  A    between atoms: _553  and  _556
REMARK  216  A    between atoms: _556  and  _557
REMARK  217  A    between atoms: _559  and  _561
REMARK  218  A    between atoms: _561  and  _562
REMARK  219  A    between atoms: _561  and  _564
REMARK  220  A    between atoms: _564  and  _565
REMARK  221  A    between atoms: _570  and  _572
REMARK  222  A    between atoms: _572  and  _573
REMARK  223  A    between atoms: _572  and  _575
REMARK  224  A    between atoms: _575  and  _576
REMARK  225  A    between atoms: _581  and  _583
REMARK  226  A    between atoms: _583  and  _584
REMARK  227  A    between atoms: _583  and  _586
REMARK  228  A    between atoms: _586  and  _587
REMARK  229  A    between atoms: _590  and  _592
REMARK  230  A    between atoms: _592  and  _593
REMARK  231  A    between atoms: _592  and  _595
REMARK  232  A    between atoms: _595  and  _596
REMARK  233  A    between atoms: _601  and  _602
REMARK  234  A    between atoms: _604  and  _606
REMARK  235  A    between atoms: _606  and  _607
REMARK  236  A    between atoms: _606  and  _609
REMARK  237  A    between atoms: _609  and  _610
REMARK  238  A    between atoms: _615  and  _616
REMARK  239  A    between atoms: _618  and  _620
REMARK  240  A    between atoms: _620  and  _621
REMARK  241  A    between atoms: _620  and  _623
REMARK  242  A    between atoms: _626  and  _628
REMARK  243  A    between atoms: _628  and  _629
REMARK  244  A    between atoms: _628  and  _631
REMARK  245  A    between atoms: _631  and  _632
REMARK  246  A    between atoms: _637  and  _639
REMARK  247  A    between atoms: _639  and  _640
REMARK  248  A    between atoms: _643  and  _645
REMARK  249  A    between atoms: _645  and  _646
REMARK  250  A    between atoms: _645  and  _648
REMARK  251  A    between atoms: _648  and  _649
REMARK  252  A    between atoms: _649  and  _650
REMARK  253  A    between atoms: _650  and  _651
REMARK  254  A    between atoms: _660  and  _662
REMARK  255  A    between atoms: _662  and  _663
REMARK  256  A    between atoms: _662  and  _665
REMARK  257  A    between atoms: _665  and  _666
REMARK  258  A    between atoms: _669  and  _671
REMARK  259  A    between atoms: _671  and  _672
REMARK  260  A    between atoms: _671  and  _674
REMARK  261  A    between atoms: _674  and  _675
REMARK  262  A    between atoms: _678  and  _680
REMARK  263  A    between atoms: _680  and  _681
REMARK  264  A    between atoms: _680  and  _683
REMARK  265  A    between atoms: _683  and  _684
REMARK                            x       y       z     vdW  Elec       q    Type
REMARK                         _______ _______ _______ _____ _____    ______ ____
ROOT
ATOM      1  O   HOH     1      -8.319  12.902  16.404  0.00  0.00    +0.000 OA
ENDROOT
TORSDOF 0
REMARK  Name = ../refined-set-2016/1b9j/1b9j_pocket.pdb
REMARK  265 active torsions:
REMARK  status: ('A' for Active; 'I' for Inactive)
REMARK    1  A    between atoms: _1  and  _3
REMARK    2  A    between atoms: _3  and  _4
REMARK    3  A    between atoms: _3  and  _6
REMARK    4  A    between atoms: _6  and  _7
REMARK    5  A    between atoms: _12  and  _14
REMARK    6  A    between atoms: _14  and  _15
REMARK    7  A    between atoms: _17  and  _19
REMARK    8  A    between atoms: _19  and  _20
REMARK    9  A    between atoms: _19  and  _22
REMARK   10  A    between atoms: _22  and  _23
REMARK   11  A    between atoms: _25  and  _27
REMARK   12  A    between atoms: _27  and  _28
REMARK   13  A    between atoms: _27  and  _30
REMARK   14  A    between atoms: _30  and  _31
REMARK   15  A    between atoms: _31  and  _32
REMARK   16  A    between atoms: _37  and  _39
REMARK   17  A    between atoms: _39  and  _40
REMARK   18  A    between atoms: _39  and  _42
REMARK   19  A    between atoms: _42  and  _43
REMARK   20  A    between atoms: _46  and  _48
REMARK   21  A    between atoms: _48  and  _49
REMARK   22  A    between atoms: _48  and  _51
REMARK   23  A    between atoms: _51  and  _52
REMARK   24  A    between atoms: _52  and  _53
REMARK   25  A    between atoms: _56  and  _58
REMARK   26  A    between atoms: _58  and  _59
REMARK   27  A    between atoms: _61  and  _63
REMARK   28  A    between atoms: _63  and  _64
REMARK   29  A    between atoms: _63  and  _66
REMARK   30  A    between atoms: _70  and  _71
REMARK   31  A    between atoms: _76  and  _78
REMARK   32  A    between atoms: _78  and  _79
REMARK   33  A    between atoms: _78  and  _81
REMARK   34  A    between atoms: _81  and  _82
REMARK   35  A    between atoms: _82  and  _83
REMARK   36  A    between atoms: _86  and  _88
REMARK   37  A    between atoms: _88  and  _89
REMARK   38  A    between atoms: _88  and  _91
REMARK   39  A    between atoms: _91  and  _92
REMARK   40  A    between atoms: _94  and  _96
REMARK   41  A    between atoms: _96  and  _97
REMARK   42  A    between atoms: _96  and  _99
REMARK   43  A    between atoms: _99  and  _100
REMARK   44  A    between atoms: _105  and  _107
REMARK   45  A    between atoms: _107  and  _108
REMARK   46  A    between atoms: _107  and  _110
REMARK   47  A    between atoms: _110  and  _111
REMARK   48  A    between atoms: _111  and  _112
REMARK   49  A    between atoms: _112  and  _113
REMARK   50  A    between atoms: _123  and  _124
REMARK   51  A    between atoms: _129  and  _131
REMARK   52  A    between atoms: _131  and  _132
REMARK   53  A    between atoms: _131  and  _134
REMARK   54  A    between atoms: _134  and  _135
REMARK   55  A    between atoms: _140  and  _141
REMARK   56  A    between atoms: _143  and  _145
REMARK   57  A    between atoms: _145  and  _146
REMARK   58  A    between atoms: _145  and  _148
REMARK   59  A    between atoms: _148  and  _149
REMARK   60  A    between atoms: _154  and  _155
REMARK   61  A    between atoms: _157  and  _159
REMARK   62  A    between atoms: _159  and  _160
REMARK   63  A    between atoms: _159  and  _162
REMARK   64  A    between atoms: _165  and  _167
REMARK   65  A    between atoms: _167  and  _168
REMARK   66  A    between atoms: _167  and  _170
REMARK   67  A    between atoms: _170  and  _171
REMARK   68  A    between atoms: _177  and  _178
REMARK   69  A    between atoms: _183  and  _185
REMARK   70  A    between atoms: _185  and  _186
REMARK   71  A    between atoms: _185  and  _188
REMARK   72  A    between atoms: _188  and  _189
REMARK   73  A    between atoms: _191  and  _193
REMARK   74  A    between atoms: _193  and  _194
REMARK   75  A    between atoms: _193  and  _196
REMARK   76  A    between atoms: _196  and  _197
REMARK   77  A    between atoms: _197  and  _198
REMARK   78  A    between atoms: _201  and  _203
REMARK   79  A    between atoms: _203  and  _204
REMARK   80  A    between atoms: _203  and  _206
REMARK   81  A    between atoms: _206  and  _207
REMARK   82  A    between atoms: _212  and  _213
REMARK   83  A    between atoms: _215  and  _217
REMARK   84  A    between atoms: _217  and  _218
REMARK   85  A    between atoms: _217  and  _220
REMARK   86  A    between atoms: _220  and  _221
REMARK   87  A    between atoms: _226  and  _228
REMARK   88  A    between atoms: _228  and  _229
REMARK   89  A    between atoms: _228  and  _231
REMARK   90  A    between atoms: _231  and  _232
REMARK   91  A    between atoms: _237  and  _239
REMARK   92  A    between atoms: _239  and  _240
REMARK   93  A    between atoms: _239  and  _242
REMARK   94  A    between atoms: _242  and  _243
REMARK   95  A    between atoms: _243  and  _244
REMARK   96  A    between atoms: _246  and  _248
REMARK   97  A    between atoms: _248  and  _249
REMARK   98  A    between atoms: _248  and  _251
REMARK   99  A    between atoms: _251  and  _252
REMARK  100  A    between atoms: _257  and  _258
REMARK  101  A    between atoms: _260  and  _262
REMARK  102  A    between atoms: _262  and  _263
REMARK  103  A    between atoms: _262  and  _265
REMARK  104  A    between atoms: _265  and  _266
REMARK  105  A    between atoms: _269  and  _271
REMARK  106  A    between atoms: _271  and  _272
REMARK  107  A    between atoms: _271  and  _274
REMARK  108  A    between atoms: _274  and  _275
REMARK  109  A    between atoms: _275  and  _492
REMARK  110  A    between atoms: _276  and  _278
REMARK  111  A    between atoms: _278  and  _279
REMARK  112  A    between atoms: _278  and  _281
REMARK  113  A    between atoms: _281  and  _282
REMARK  114  A    between atoms: _285  and  _287
REMARK  115  A    between atoms: _287  and  _288
REMARK  116  A    between atoms: _287  and  _290
REMARK  117  A    between atoms: _290  and  _291
REMARK  118  A    between atoms: _296  and  _297
REMARK  119  A    between atoms: _299  and  _301
REMARK  120  A    between atoms: _301  and  _302
REMARK  121  A    between atoms: _301  and  _304
REMARK  122  A    between atoms: _304  and  _305
REMARK  123  A    between atoms: _310  and  _311
REMARK  124  A    between atoms: _313  and  _315
REMARK  125  A    between atoms: _315  and  _316
REMARK  126  A    between atoms: _315  and  _318
REMARK  127  A    between atoms: _318  and  _319
REMARK  128  A    between atoms: _319  and  _320
REMARK  129  A    between atoms: _323  and  _325
REMARK  130  A    between atoms: _325  and  _326
REMARK  131  A    between atoms: _325  and  _328
REMARK  132  A    between atoms: _328  and  _329
REMARK  133  A    between atoms: _334  and  _335
REMARK  134  A    between atoms: _337  and  _339
REMARK  135  A    between atoms: _339  and  _340
REMARK  136  A    between atoms: _339  and  _342
REMARK  137  A    between atoms: _342  and  _343
REMARK  138  A    between atoms: _348  and  _350
REMARK  139  A    between atoms: _350  and  _351
REMARK  140  A    between atoms: _350  and  _353
REMARK  141  A    between atoms: _353  and  _354
REMARK  142  A    between atoms: _357  and  _359
REMARK  143  A    between atoms: _359  and  _360
REMARK  144  A    between atoms: _359  and  _362
REMARK  145  A    between atoms: _362  and  _363
REMARK  146  A    between atoms: _368  and  _370
REMARK  147  A    between atoms: _370  and  _371
REMARK  148  A    between atoms: _370  and  _373
REMARK  149  A    between atoms: _373  and  _374
REMARK  150  A    between atoms: _384  and  _386
REMARK  151  A    between atoms: _386  and  _387
REMARK  152  A    between atoms: _386  and  _389
REMARK  153  A    between atoms: _389  and  _390
REMARK  154  A    between atoms: _396  and  _398
REMARK  155  A    between atoms: _398  and  _399
REMARK  156  A    between atoms: _398  and  _401
REMARK  157  A    between atoms: _401  and  _402
REMARK  158  A    between atoms: _405  and  _407
REMARK  159  A    between atoms: _407  and  _408
REMARK  160  A    between atoms: _407  and  _410
REMARK  161  A    between atoms: _410  and  _411
REMARK  162  A    between atoms: _414  and  _416
REMARK  163  A    between atoms: _416  and  _417
REMARK  164  A    between atoms: _416  and  _419
REMARK  165  A    between atoms: _419  and  _420
REMARK  166  A    between atoms: _420  and  _421
REMARK  167  A    between atoms: _421  and  _422
REMARK  168  A    between atoms: _431  and  _433
REMARK  169  A    between atoms: _433  and  _434
REMARK  170  A    between atoms: _433  and  _436
REMARK  171  A    between atoms: _436  and  _437
REMARK  172  A    between atoms: _442  and  _444
REMARK  173  A    between atoms: _444  and  _445
REMARK  174  A    between atoms: _444  and  _447
REMARK  175  A    between atoms: _447  and  _448
REMARK  176  A    between atoms: _448  and  _449
REMARK  177  A    between atoms: _449  and  _450
REMARK  178  A    between atoms: _459  and  _461
REMARK  179  A    between atoms: _461  and  _462
REMARK  180  A    between atoms: _465  and  _467
REMARK  181  A    between atoms: _467  and  _468
REMARK  182  A    between atoms: _470  and  _472
REMARK  183  A    between atoms: _472  and  _473
REMARK  184  A    between atoms: _472  and  _475
REMARK  185  A    between atoms: _475  and  _476
REMARK  186  A    between atoms: _486  and  _488
REMARK  187  A    between atoms: _488  and  _489
REMARK  188  A    between atoms: _488  and  _491
REMARK  189  A    between atoms: _491  and  _492
REMARK  190  A    between atoms: _493  and  _495
REMARK  191  A    between atoms: _495  and  _496
REMARK  192  A    between atoms: _499  and  _501
REMARK  193  A    between atoms: _501  and  _502
REMARK  194  A    between atoms: _501  and  _504
REMARK  195  A    between atoms: _504  and  _505
REMARK  196  A    between atoms: _508  and  _510
REMARK  197  A    between atoms: _510  and  _511
REMARK  198  A    between atoms: _510  and  _513
REMARK  199  A    between atoms: _513  and  _514
REMARK  200  A    between atoms: _519  and  _520
REMARK  201  A    between atoms: _522  and  _524
REMARK  202  A    between atoms: _524  and  _525
REMARK  203  A    between atoms: _524  and  _527
REMARK  204  A    between atoms: _527  and  _528
REMARK  205  A    between atoms: _530  and  _532
REMARK  206  A    between atoms: _532  and  _533
REMARK  207  A    between atoms: _532  and  _535
REMARK  208  A    between atoms: _535  and  _536
REMARK  209  A    between atoms: _542  and  _544
REMARK  210  A    between atoms: _544  and  _545
REMARK  211  A    between atoms: _544  and  _547
REMARK  212  A    between atoms: _547  and  _548
REMARK  213  A    between atoms: _551  and  _553
REMARK  214  A    between atoms: _553  and  _554
REMARK  215  A    between atoms: _553  and  _556
REMARK  216  A    between atoms: _556  and  _557
REMARK  217  A    between atoms: _559  and  _561
REMARK  218  A    between atoms: _561  and  _562
REMARK  219  A    between atoms: _561  and  _564
REMARK  220  A    between atoms: _564  and  _565
REMARK  221  A    between atoms: _570  and  _572
REMARK  222  A    between atoms: _572  and  _573
REMARK  223  A    between atoms: _572  and  _575
REMARK  224  A    between atoms: _575  and  _576
REMARK  225  A    between atoms: _581  and  _583
REMARK  226  A    between atoms: _583  and  _584
REMARK  227  A    between atoms: _583  and  _586
REMARK  228  A    between atoms: _586  and  _587
REMARK  229  A    between atoms: _590  and  _592
REMARK  230  A    between atoms: _592  and  _593
REMARK  231  A    between atoms: _592  and  _595
REMARK  232  A    between atoms: _595  and  _596
REMARK  233  A    between atoms: _601  and  _602
REMARK  234  A    between atoms: _604  and  _606
REMARK  235  A    between atoms: _606  and  _607
REMARK  236  A    between atoms: _606  and  _609
REMARK  237  A    between atoms: _609  and  _610
REMARK  238  A    between atoms: _615  and  _616
REMARK  239  A    between atoms: _618  and  _620
REMARK  240  A    between atoms: _620  and  _621
REMARK  241  A    between atoms: _620  and  _623
REMARK  242  A    between atoms: _626  and  _628
REMARK  243  A    between atoms: _628  and  _629
REMARK  244  A    between atoms: _628  and  _631
REMARK  245  A    between atoms: _631  and  _632
REMARK  246  A    between atoms: _637  and  _639
REMARK  247  A    between atoms: _639  and  _640
REMARK  248  A    between atoms: _643  and  _645
REMARK  249  A    between atoms: _645  and  _646
REMARK  250  A    between atoms: _645  and  _648
REMARK  251  A    between atoms: _648  and  _649
REMARK  252  A    between atoms: _649  and  _650
REMARK  253  A    between atoms: _650  and  _651
REMARK  254  A    between atoms: _660  and  _662
REMARK  255  A    between atoms: _662  and  _663
REMARK  256  A    between atoms: _662  and  _665
REMARK  257  A    between atoms: _665  and  _666
REMARK  258  A    between atoms: _669  and  _671
REMARK  259  A    between atoms: _671  and  _672
REMARK  260  A    between atoms: _671  and  _674
REMARK  261  A    between atoms: _674  and  _675
REMARK  262  A    between atoms: _678  and  _680
REMARK  263  A    between atoms: _680  and  _681
REMARK  264  A    between atoms: _680  and  _683
REMARK  265  A    between atoms: _683  and  _684
REMARK                            x       y       z     vdW  Elec       q    Type
REMARK                         _______ _______ _______ _____ _____    ______ ____
ROOT
ATOM      1  O   HOH     1       6.115   7.907   7.392  0.00  0.00    +0.000 OA
ENDROOT
TORSDOF 0
REMARK  Name = ../refined-set-2016/1b9j/1b9j_pocket.pdb
REMARK  265 active torsions:
REMARK  status: ('A' for Active; 'I' for Inactive)
REMARK    1  A    between atoms: _1  and  _3
REMARK    2  A    between atoms: _3  and  _4
REMARK    3  A    between atoms: _3  and  _6
REMARK    4  A    between atoms: _6  and  _7
REMARK    5  A    between atoms: _12  and  _14
REMARK    6  A    between atoms: _14  and  _15
REMARK    7  A    between atoms: _17  and  _19
REMARK    8  A    between atoms: _19  and  _20
REMARK    9  A    between atoms: _19  and  _22
REMARK   10  A    between atoms: _22  and  _23
REMARK   11  A    between atoms: _25  and  _27
REMARK   12  A    between atoms: _27  and  _28
REMARK   13  A    between atoms: _27  and  _30
REMARK   14  A    between atoms: _30  and  _31
REMARK   15  A    between atoms: _31  and  _32
REMARK   16  A    between atoms: _37  and  _39
REMARK   17  A    between atoms: _39  and  _40
REMARK   18  A    between atoms: _39  and  _42
REMARK   19  A    between atoms: _42  and  _43
REMARK   20  A    between atoms: _46  and  _48
REMARK   21  A    between atoms: _48  and  _49
REMARK   22  A    between atoms: _48  and  _51
REMARK   23  A    between atoms: _51  and  _52
REMARK   24  A    between atoms: _52  and  _53
REMARK   25  A    between atoms: _56  and  _58
REMARK   26  A    between atoms: _58  and  _59
REMARK   27  A    between atoms: _61  and  _63
REMARK   28  A    between atoms: _63  and  _64
REMARK   29  A    between atoms: _63  and  _66
REMARK   30  A    between atoms: _70  and  _71
REMARK   31  A    between atoms: _76  and  _78
REMARK   32  A    between atoms: _78  and  _79
REMARK   33  A    between atoms: _78  and  _81
REMARK   34  A    between atoms: _81  and  _82
REMARK   35  A    between atoms: _82  and  _83
REMARK   36  A    between atoms: _86  and  _88
REMARK   37  A    between atoms: _88  and  _89
REMARK   38  A    between atoms: _88  and  _91
REMARK   39  A    between atoms: _91  and  _92
REMARK   40  A    between atoms: _94  and  _96
REMARK   41  A    between atoms: _96  and  _97
REMARK   42  A    between atoms: _96  and  _99
REMARK   43  A    between atoms: _99  and  _100
REMARK   44  A    between atoms: _105  and  _107
REMARK   45  A    between atoms: _107  and  _108
REMARK   46  A    between atoms: _107  and  _110
REMARK   47  A    between atoms: _110  and  _111
REMARK   48  A    between atoms: _111  and  _112
REMARK   49  A    between atoms: _112  and  _113
REMARK   50  A    between atoms: _123  and  _124
REMARK   51  A    between atoms: _129  and  _131
REMARK   52  A    between atoms: _131  and  _132
REMARK   53  A    between atoms: _131  and  _134
REMARK   54  A    between atoms: _134  and  _135
REMARK   55  A    between atoms: _140  and  _141
REMARK   56  A    between atoms: _143  and  _145
REMARK   57  A    between atoms: _145  and  _146
REMARK   58  A    between atoms: _145  and  _148
REMARK   59  A    between atoms: _148  and  _149
REMARK   60  A    between atoms: _154  and  _155
REMARK   61  A    between atoms: _157  and  _159
REMARK   62  A    between atoms: _159  and  _160
REMARK   63  A    between atoms: _159  and  _162
REMARK   64  A    between atoms: _165  and  _167
REMARK   65  A    between atoms: _167  and  _168
REMARK   66  A    between atoms: _167  and  _170
REMARK   67  A    between atoms: _170  and  _171
REMARK   68  A    between atoms: _177  and  _178
REMARK   69  A    between atoms: _183  and  _185
REMARK   70  A    between atoms: _185  and  _186
REMARK   71  A    between atoms: _185  and  _188
REMARK   72  A    between atoms: _188  and  _189
REMARK   73  A    between atoms: _191  and  _193
REMARK   74  A    between atoms: _193  and  _194
REMARK   75  A    between atoms: _193  and  _196
REMARK   76  A    between atoms: _196  and  _197
REMARK   77  A    between atoms: _197  and  _198
REMARK   78  A    between atoms: _201  and  _203
REMARK   79  A    between atoms: _203  and  _204
REMARK   80  A    between atoms: _203  and  _206
REMARK   81  A    between atoms: _206  and  _207
REMARK   82  A    between atoms: _212  and  _213
REMARK   83  A    between atoms: _215  and  _217
REMARK   84  A    between atoms: _217  and  _218
REMARK   85  A    between atoms: _217  and  _220
REMARK   86  A    between atoms: _220  and  _221
REMARK   87  A    between atoms: _226  and  _228
REMARK   88  A    between atoms: _228  and  _229
REMARK   89  A    between atoms: _228  and  _231
REMARK   90  A    between atoms: _231  and  _232
REMARK   91  A    between atoms: _237  and  _239
REMARK   92  A    between atoms: _239  and  _240
REMARK   93  A    between atoms: _239  and  _242
REMARK   94  A    between atoms: _242  and  _243
REMARK   95  A    between atoms: _243  and  _244
REMARK   96  A    between atoms: _246  and  _248
REMARK   97  A    between atoms: _248  and  _249
REMARK   98  A    between atoms: _248  and  _251
REMARK   99  A    between atoms: _251  and  _252
REMARK  100  A    between atoms: _257  and  _258
REMARK  101  A    between atoms: _260  and  _262
REMARK  102  A    between atoms: _262  and  _263
REMARK  103  A    between atoms: _262  and  _265
REMARK  104  A    between atoms: _265  and  _266
REMARK  105  A    between atoms: _269  and  _271
REMARK  106  A    between atoms: _271  and  _272
REMARK  107  A    between atoms: _271  and  _274
REMARK  108  A    between atoms: _274  and  _275
REMARK  109  A    between atoms: _275  and  _492
REMARK  110  A    between atoms: _276  and  _278
REMARK  111  A    between atoms: _278  and  _279
REMARK  112  A    between atoms: _278  and  _281
REMARK  113  A    between atoms: _281  and  _282
REMARK  114  A    between atoms: _285  and  _287
REMARK  115  A    between atoms: _287  and  _288
REMARK  116  A    between atoms: _287  and  _290
REMARK  117  A    between atoms: _290  and  _291
REMARK  118  A    between atoms: _296  and  _297
REMARK  119  A    between atoms: _299  and  _301
REMARK  120  A    between atoms: _301  and  _302
REMARK  121  A    between atoms: _301  and  _304
REMARK  122  A    between atoms: _304  and  _305
REMARK  123  A    between atoms: _310  and  _311
REMARK  124  A    between atoms: _313  and  _315
REMARK  125  A    between atoms: _315  and  _316
REMARK  126  A    between atoms: _315  and  _318
REMARK  127  A    between atoms: _318  and  _319
REMARK  128  A    between atoms: _319  and  _320
REMARK  129  A    between atoms: _323  and  _325
REMARK  130  A    between atoms: _325  and  _326
REMARK  131  A    between atoms: _325  and  _328
REMARK  132  A    between atoms: _328  and  _329
REMARK  133  A    between atoms: _334  and  _335
REMARK  134  A    between atoms: _337  and  _339
REMARK  135  A    between atoms: _339  and  _340
REMARK  136  A    between atoms: _339  and  _342
REMARK  137  A    between atoms: _342  and  _343
REMARK  138  A    between atoms: _348  and  _350
REMARK  139  A    between atoms: _350  and  _351
REMARK  140  A    between atoms: _350  and  _353
REMARK  141  A    between atoms: _353  and  _354
REMARK  142  A    between atoms: _357  and  _359
REMARK  143  A    between atoms: _359  and  _360
REMARK  144  A    between atoms: _359  and  _362
REMARK  145  A    between atoms: _362  and  _363
REMARK  146  A    between atoms: _368  and  _370
REMARK  147  A    between atoms: _370  and  _371
REMARK  148  A    between atoms: _370  and  _373
REMARK  149  A    between atoms: _373  and  _374
REMARK  150  A    between atoms: _384  and  _386
REMARK  151  A    between atoms: _386  and  _387
REMARK  152  A    between atoms: _386  and  _389
REMARK  153  A    between atoms: _389  and  _390
REMARK  154  A    between atoms: _396  and  _398
REMARK  155  A    between atoms: _398  and  _399
REMARK  156  A    between atoms: _398  and  _401
REMARK  157  A    between atoms: _401  and  _402
REMARK  158  A    between atoms: _405  and  _407
REMARK  159  A    between atoms: _407  and  _408
REMARK  160  A    between atoms: _407  and  _410
REMARK  161  A    between atoms: _410  and  _411
REMARK  162  A    between atoms: _414  and  _416
REMARK  163  A    between atoms: _416  and  _417
REMARK  164  A    between atoms: _416  and  _419
REMARK  165  A    between atoms: _419  and  _420
REMARK  166  A    between atoms: _420  and  _421
REMARK  167  A    between atoms: _421  and  _422
REMARK  168  A    between atoms: _431  and  _433
REMARK  169  A    between atoms: _433  and  _434
REMARK  170  A    between atoms: _433  and  _436
REMARK  171  A    between atoms: _436  and  _437
REMARK  172  A    between atoms: _442  and  _444
REMARK  173  A    between atoms: _444  and  _445
REMARK  174  A    between atoms: _444  and  _447
REMARK  175  A    between atoms: _447  and  _448
REMARK  176  A    between atoms: _448  and  _449
REMARK  177  A    between atoms: _449  and  _450
REMARK  178  A    between atoms: _459  and  _461
REMARK  179  A    between atoms: _461  and  _462
REMARK  180  A    between atoms: _465  and  _467
REMARK  181  A    between atoms: _467  and  _468
REMARK  182  A    between atoms: _470  and  _472
REMARK  183  A    between atoms: _472  and  _473
REMARK  184  A    between atoms: _472  and  _475
REMARK  185  A    between atoms: _475  and  _476
REMARK  186  A    between atoms: _486  and  _488
REMARK  187  A    between atoms: _488  and  _489
REMARK  188  A    between atoms: _488  and  _491
REMARK  189  A    between atoms: _491  and  _492
REMARK  190  A    between atoms: _493  and  _495
REMARK  191  A    between atoms: _495  and  _496
REMARK  192  A    between atoms: _499  and  _501
REMARK  193  A    between atoms: _501  and  _502
REMARK  194  A    between atoms: _501  and  _504
REMARK  195  A    between atoms: _504  and  _505
REMARK  196  A    between atoms: _508  and  _510
REMARK  197  A    between atoms: _510  and  _511
REMARK  198  A    between atoms: _510  and  _513
REMARK  199  A    between atoms: _513  and  _514
REMARK  200  A    between atoms: _519  and  _520
REMARK  201  A    between atoms: _522  and  _524
REMARK  202  A    between atoms: _524  and  _525
REMARK  203  A    between atoms: _524  and  _527
REMARK  204  A    between atoms: _527  and  _528
REMARK  205  A    between atoms: _530  and  _532
REMARK  206  A    between atoms: _532  and  _533
REMARK  207  A    between atoms: _532  and  _535
REMARK  208  A    between atoms: _535  and  _536
REMARK  209  A    between atoms: _542  and  _544
REMARK  210  A    between atoms: _544  and  _545
REMARK  211  A    between atoms: _544  and  _547
REMARK  212  A    between atoms: _547  and  _548
REMARK  213  A    between atoms: _551  and  _553
REMARK  214  A    between atoms: _553  and  _554
REMARK  215  A    between atoms: _553  and  _556
REMARK  216  A    between atoms: _556  and  _557
REMARK  217  A    between atoms: _559  and  _561
REMARK  218  A    between atoms: _561  and  _562
REMARK  219  A    between atoms: _561  and  _564
REMARK  220  A    between atoms: _564  and  _565
REMARK  221  A    between atoms: _570  and  _572
REMARK  222  A    between atoms: _572  and  _573
REMARK  223  A    between atoms: _572  and  _575
REMARK  224  A    between atoms: _575  and  _576
REMARK  225  A    between atoms: _581  and  _583
REMARK  226  A    between atoms: _583  and  _584
REMARK  227  A    between atoms: _583  and  _586
REMARK  228  A    between atoms: _586  and  _587
REMARK  229  A    between atoms: _590  and  _592
REMARK  230  A    between atoms: _592  and  _593
REMARK  231  A    between atoms: _592  and  _595
REMARK  232  A    between atoms: _595  and  _596
REMARK  233  A    between atoms: _601  and  _602
REMARK  234  A    between atoms: _604  and  _606
REMARK  235  A    between atoms: _606  and  _607
REMARK  236  A    between atoms: _606  and  _609
REMARK  237  A    between atoms: _609  and  _610
REMARK  238  A    between atoms: _615  and  _616
REMARK  239  A    between atoms: _618  and  _620
REMARK  240  A    between atoms: _620  and  _621
REMARK  241  A    between atoms: _620  and  _623
REMARK  242  A    between atoms: _626  and  _628
REMARK  243  A    between atoms: _628  and  _629
REMARK  244  A    between atoms: _628  and  _631
REMARK  245  A    between atoms: _631  and  _632
REMARK  246  A    between atoms: _637  and  _639
REMARK  247  A    between atoms: _639  and  _640
REMARK  248  A    between atoms: _643  and  _645
REMARK  249  A    between atoms: _645  and  _646
REMARK  250  A    between atoms: _645  and  _648
REMARK  251  A    between atoms: _648  and  _649
REMARK  252  A    between atoms: _649  and  _650
REMARK  253  A    between atoms: _650  and  _651
REMARK  254  A    between atoms: _660  and  _662
REMARK  255  A    between atoms: _662  and  _663
REMARK  256  A    between atoms: _662  and  _665
REMARK  257  A    between atoms: _665  and  _666
REMARK  258  A    between atoms: _669  and  _671
REMARK  259  A    between atoms: _671  and  _672
REMARK  260  A    between atoms: _671  and  _674
REMARK  261  A    between atoms: _674  and  _675
REMARK  262  A    between atoms: _678  and  _680
REMARK  263  A    between atoms: _680  and  _681
REMARK  264  A    between atoms: _680  and  _683
REMARK  265  A    between atoms: _683  and  _684
REMARK                            x       y       z     vdW  Elec       q    Type
REMARK                         _______ _______ _______ _____ _____    ______ ____
ROOT
ATOM      1  O   HOH     1       1.600  14.465  11.123  0.00  0.00    +0.000 OA
ENDROOT
TORSDOF 0
REMARK  Name = ../refined-set-2016/1b9j/1b9j_pocket.pdb
REMARK  265 active torsions:
REMARK  status: ('A' for Active; 'I' for Inactive)
REMARK    1  A    between atoms: _1  and  _3
REMARK    2  A    between atoms: _3  and  _4
REMARK    3  A    between atoms: _3  and  _6
REMARK    4  A    between atoms: _6  and  _7
REMARK    5  A    between atoms: _12  and  _14
REMARK    6  A    between atoms: _14  and  _15
REMARK    7  A    between atoms: _17  and  _19
REMARK    8  A    between atoms: _19  and  _20
REMARK    9  A    between atoms: _19  and  _22
REMARK   10  A    between atoms: _22  and  _23
REMARK   11  A    between atoms: _25  and  _27
REMARK   12  A    between atoms: _27  and  _28
REMARK   13  A    between atoms: _27  and  _30
REMARK   14  A    between atoms: _30  and  _31
REMARK   15  A    between atoms: _31  and  _32
REMARK   16  A    between atoms: _37  and  _39
REMARK   17  A    between atoms: _39  and  _40
REMARK   18  A    between atoms: _39  and  _42
REMARK   19  A    between atoms: _42  and  _43
REMARK   20  A    between atoms: _46  and  _48
REMARK   21  A    between atoms: _48  and  _49
REMARK   22  A    between atoms: _48  and  _51
REMARK   23  A    between atoms: _51  and  _52
REMARK   24  A    between atoms: _52  and  _53
REMARK   25  A    between atoms: _56  and  _58
REMARK   26  A    between atoms: _58  and  _59
REMARK   27  A    between atoms: _61  and  _63
REMARK   28  A    between atoms: _63  and  _64
REMARK   29  A    between atoms: _63  and  _66
REMARK   30  A    between atoms: _70  and  _71
REMARK   31  A    between atoms: _76  and  _78
REMARK   32  A    between atoms: _78  and  _79
REMARK   33  A    between atoms: _78  and  _81
REMARK   34  A    between atoms: _81  and  _82
REMARK   35  A    between atoms: _82  and  _83
REMARK   36  A    between atoms: _86  and  _88
REMARK   37  A    between atoms: _88  and  _89
REMARK   38  A    between atoms: _88  and  _91
REMARK   39  A    between atoms: _91  and  _92
REMARK   40  A    between atoms: _94  and  _96
REMARK   41  A    between atoms: _96  and  _97
REMARK   42  A    between atoms: _96  and  _99
REMARK   43  A    between atoms: _99  and  _100
REMARK   44  A    between atoms: _105  and  _107
REMARK   45  A    between atoms: _107  and  _108
REMARK   46  A    between atoms: _107  and  _110
REMARK   47  A    between atoms: _110  and  _111
REMARK   48  A    between atoms: _111  and  _112
REMARK   49  A    between atoms: _112  and  _113
REMARK   50  A    between atoms: _123  and  _124
REMARK   51  A    between atoms: _129  and  _131
REMARK   52  A    between atoms: _131  and  _132
REMARK   53  A    between atoms: _131  and  _134
REMARK   54  A    between atoms: _134  and  _135
REMARK   55  A    between atoms: _140  and  _141
REMARK   56  A    between atoms: _143  and  _145
REMARK   57  A    between atoms: _145  and  _146
REMARK   58  A    between atoms: _145  and  _148
REMARK   59  A    between atoms: _148  and  _149
REMARK   60  A    between atoms: _154  and  _155
REMARK   61  A    between atoms: _157  and  _159
REMARK   62  A    between atoms: _159  and  _160
REMARK   63  A    between atoms: _159  and  _162
REMARK   64  A    between atoms: _165  and  _167
REMARK   65  A    between atoms: _167  and  _168
REMARK   66  A    between atoms: _167  and  _170
REMARK   67  A    between atoms: _170  and  _171
REMARK   68  A    between atoms: _177  and  _178
REMARK   69  A    between atoms: _183  and  _185
REMARK   70  A    between atoms: _185  and  _186
REMARK   71  A    between atoms: _185  and  _188
REMARK   72  A    between atoms: _188  and  _189
REMARK   73  A    between atoms: _191  and  _193
REMARK   74  A    between atoms: _193  and  _194
REMARK   75  A    between atoms: _193  and  _196
REMARK   76  A    between atoms: _196  and  _197
REMARK   77  A    between atoms: _197  and  _198
REMARK   78  A    between atoms: _201  and  _203
REMARK   79  A    between atoms: _203  and  _204
REMARK   80  A    between atoms: _203  and  _206
REMARK   81  A    between atoms: _206  and  _207
REMARK   82  A    between atoms: _212  and  _213
REMARK   83  A    between atoms: _215  and  _217
REMARK   84  A    between atoms: _217  and  _218
REMARK   85  A    between atoms: _217  and  _220
REMARK   86  A    between atoms: _220  and  _221
REMARK   87  A    between atoms: _226  and  _228
REMARK   88  A    between atoms: _228  and  _229
REMARK   89  A    between atoms: _228  and  _231
REMARK   90  A    between atoms: _231  and  _232
REMARK   91  A    between atoms: _237  and  _239
REMARK   92  A    between atoms: _239  and  _240
REMARK   93  A    between atoms: _239  and  _242
REMARK   94  A    between atoms: _242  and  _243
REMARK   95  A    between atoms: _243  and  _244
REMARK   96  A    between atoms: _246  and  _248
REMARK   97  A    between atoms: _248  and  _249
REMARK   98  A    between atoms: _248  and  _251
REMARK   99  A    between atoms: _251  and  _252
REMARK  100  A    between atoms: _257  and  _258
REMARK  101  A    between atoms: _260  and  _262
REMARK  102  A    between atoms: _262  and  _263
REMARK  103  A    between atoms: _262  and  _265
REMARK  104  A    between atoms: _265  and  _266
REMARK  105  A    between atoms: _269  and  _271
REMARK  106  A    between atoms: _271  and  _272
REMARK  107  A    between atoms: _271  and  _274
REMARK  108  A    between atoms: _274  and  _275
REMARK  109  A    between atoms: _275  and  _492
REMARK  110  A    between atoms: _276  and  _278
REMARK  111  A    between atoms: _278  and  _279
REMARK  112  A    between atoms: _278  and  _281
REMARK  113  A    between atoms: _281  and  _282
REMARK  114  A    between atoms: _285  and  _287
REMARK  115  A    between atoms: _287  and  _288
REMARK  116  A    between atoms: _287  and  _290
REMARK  117  A    between atoms: _290  and  _291
REMARK  118  A    between atoms: _296  and  _297
REMARK  119  A    between atoms: _299  and  _301
REMARK  120  A    between atoms: _301  and  _302
REMARK  121  A    between atoms: _301  and  _304
REMARK  122  A    between atoms: _304  and  _305
REMARK  123  A    between atoms: _310  and  _311
REMARK  124  A    between atoms: _313  and  _315
REMARK  125  A    between atoms: _315  and  _316
REMARK  126  A    between atoms: _315  and  _318
REMARK  127  A    between atoms: _318  and  _319
REMARK  128  A    between atoms: _319  and  _320
REMARK  129  A    between atoms: _323  and  _325
REMARK  130  A    between atoms: _325  and  _326
REMARK  131  A    between atoms: _325  and  _328
REMARK  132  A    between atoms: _328  and  _329
REMARK  133  A    between atoms: _334  and  _335
REMARK  134  A    between atoms: _337  and  _339
REMARK  135  A    between atoms: _339  and  _340
REMARK  136  A    between atoms: _339  and  _342
REMARK  137  A    between atoms: _342  and  _343
REMARK  138  A    between atoms: _348  and  _350
REMARK  139  A    between atoms: _350  and  _351
REMARK  140  A    between atoms: _350  and  _353
REMARK  141  A    between atoms: _353  and  _354
REMARK  142  A    between atoms: _357  and  _359
REMARK  143  A    between atoms: _359  and  _360
REMARK  144  A    between atoms: _359  and  _362
REMARK  145  A    between atoms: _362  and  _363
REMARK  146  A    between atoms: _368  and  _370
REMARK  147  A    between atoms: _370  and  _371
REMARK  148  A    between atoms: _370  and  _373
REMARK  149  A    between atoms: _373  and  _374
REMARK  150  A    between atoms: _384  and  _386
REMARK  151  A    between atoms: _386  and  _387
REMARK  152  A    between atoms: _386  and  _389
REMARK  153  A    between atoms: _389  and  _390
REMARK  154  A    between atoms: _396  and  _398
REMARK  155  A    between atoms: _398  and  _399
REMARK  156  A    between atoms: _398  and  _401
REMARK  157  A    between atoms: _401  and  _402
REMARK  158  A    between atoms: _405  and  _407
REMARK  159  A    between atoms: _407  and  _408
REMARK  160  A    between atoms: _407  and  _410
REMARK  161  A    between atoms: _410  and  _411
REMARK  162  A    between atoms: _414  and  _416
REMARK  163  A    between atoms: _416  and  _417
REMARK  164  A    between atoms: _416  and  _419
REMARK  165  A    between atoms: _419  and  _420
REMARK  166  A    between atoms: _420  and  _421
REMARK  167  A    between atoms: _421  and  _422
REMARK  168  A    between atoms: _431  and  _433
REMARK  169  A    between atoms: _433  and  _434
REMARK  170  A    between atoms: _433  and  _436
REMARK  171  A    between atoms: _436  and  _437
REMARK  172  A    between atoms: _442  and  _444
REMARK  173  A    between atoms: _444  and  _445
REMARK  174  A    between atoms: _444  and  _447
REMARK  175  A    between atoms: _447  and  _448
REMARK  176  A    between atoms: _448  and  _449
REMARK  177  A    between atoms: _449  and  _450
REMARK  178  A    between atoms: _459  and  _461
REMARK  179  A    between atoms: _461  and  _462
REMARK  180  A    between atoms: _465  and  _467
REMARK  181  A    between atoms: _467  and  _468
REMARK  182  A    between atoms: _470  and  _472
REMARK  183  A    between atoms: _472  and  _473
REMARK  184  A    between atoms: _472  and  _475
REMARK  185  A    between atoms: _475  and  _476
REMARK  186  A    between atoms: _486  and  _488
REMARK  187  A    between atoms: _488  and  _489
REMARK  188  A    between atoms: _488  and  _491
REMARK  189  A    between atoms: _491  and  _492
REMARK  190  A    between atoms: _493  and  _495
REMARK  191  A    between atoms: _495  and  _496
REMARK  192  A    between atoms: _499  and  _501
REMARK  193  A    between atoms: _501  and  _502
REMARK  194  A    between atoms: _501  and  _504
REMARK  195  A    between atoms: _504  and  _505
REMARK  196  A    between atoms: _508  and  _510
REMARK  197  A    between atoms: _510  and  _511
REMARK  198  A    between atoms: _510  and  _513
REMARK  199  A    between atoms: _513  and  _514
REMARK  200  A    between atoms: _519  and  _520
REMARK  201  A    between atoms: _522  and  _524
REMARK  202  A    between atoms: _524  and  _525
REMARK  203  A    between atoms: _524  and  _527
REMARK  204  A    between atoms: _527  and  _528
REMARK  205  A    between atoms: _530  and  _532
REMARK  206  A    between atoms: _532  and  _533
REMARK  207  A    between atoms: _532  and  _535
REMARK  208  A    between atoms: _535  and  _536
REMARK  209  A    between atoms: _542  and  _544
REMARK  210  A    between atoms: _544  and  _545
REMARK  211  A    between atoms: _544  and  _547
REMARK  212  A    between atoms: _547  and  _548
REMARK  213  A    between atoms: _551  and  _553
REMARK  214  A    between atoms: _553  and  _554
REMARK  215  A    between atoms: _553  and  _556
REMARK  216  A    between atoms: _556  and  _557
REMARK  217  A    between atoms: _559  and  _561
REMARK  218  A    between atoms: _561  and  _562
REMARK  219  A    between atoms: _561  and  _564
REMARK  220  A    between atoms: _564  and  _565
REMARK  221  A    between atoms: _570  and  _572
REMARK  222  A    between atoms: _572  and  _573
REMARK  223  A    between atoms: _572  and  _575
REMARK  224  A    between atoms: _575  and  _576
REMARK  225  A    between atoms: _581  and  _583
REMARK  226  A    between atoms: _583  and  _584
REMARK  227  A    between atoms: _583  and  _586
REMARK  228  A    between atoms: _586  and  _587
REMARK  229  A    between atoms: _590  and  _592
REMARK  230  A    between atoms: _592  and  _593
REMARK  231  A    between atoms: _592  and  _595
REMARK  232  A    between atoms: _595  and  _596
REMARK  233  A    between atoms: _601  and  _602
REMARK  234  A    between atoms: _604  and  _606
REMARK  235  A    between atoms: _606  and  _607
REMARK  236  A    between atoms: _606  and  _609
REMARK  237  A    between atoms: _609  and  _610
REMARK  238  A    between atoms: _615  and  _616
REMARK  239  A    between atoms: _618  and  _620
REMARK  240  A    between atoms: _620  and  _621
REMARK  241  A    between atoms: _620  and  _623
REMARK  242  A    between atoms: _626  and  _628
REMARK  243  A    between atoms: _628  and  _629
REMARK  244  A    between atoms: _628  and  _631
REMARK  245  A    between atoms: _631  and  _632
REMARK  246  A    between atoms: _637  and  _639
REMARK  247  A    between atoms: _639  and  _640
REMARK  248  A    between atoms: _643  and  _645
REMARK  249  A    between atoms: _645  and  _646
REMARK  250  A    between atoms: _645  and  _648
REMARK  251  A    between atoms: _648  and  _649
REMARK  252  A    between atoms: _649  and  _650
REMARK  253  A    between atoms: _650  and  _651
REMARK  254  A    between atoms: _660  and  _662
REMARK  255  A    between atoms: _662  and  _663
REMARK  256  A    between atoms: _662  and  _665
REMARK  257  A    between atoms: _665  and  _666
REMARK  258  A    between atoms: _669  and  _671
REMARK  259  A    between atoms: _671  and  _672
REMARK  260  A    between atoms: _671  and  _674
REMARK  261  A    between atoms: _674  and  _675
REMARK  262  A    between atoms: _678  and  _680
REMARK  263  A    between atoms: _680  and  _681
REMARK  264  A    between atoms: _680  and  _683
REMARK  265  A    between atoms: _683  and  _684
REMARK                            x       y       z     vdW  Elec       q    Type
REMARK                         _______ _______ _______ _____ _____    ______ ____
ROOT
ATOM      1  O   HOH     1      -8.417  14.349  12.371  0.00  0.00    +0.000 OA
ENDROOT
TORSDOF 0
REMARK  Name = ../refined-set-2016/1b9j/1b9j_pocket.pdb
REMARK  265 active torsions:
REMARK  status: ('A' for Active; 'I' for Inactive)
REMARK    1  A    between atoms: _1  and  _3
REMARK    2  A    between atoms: _3  and  _4
REMARK    3  A    between atoms: _3  and  _6
REMARK    4  A    between atoms: _6  and  _7
REMARK    5  A    between atoms: _12  and  _14
REMARK    6  A    between atoms: _14  and  _15
REMARK    7  A    between atoms: _17  and  _19
REMARK    8  A    between atoms: _19  and  _20
REMARK    9  A    between atoms: _19  and  _22
REMARK   10  A    between atoms: _22  and  _23
REMARK   11  A    between atoms: _25  and  _27
REMARK   12  A    between atoms: _27  and  _28
REMARK   13  A    between atoms: _27  and  _30
REMARK   14  A    between atoms: _30  and  _31
REMARK   15  A    between atoms: _31  and  _32
REMARK   16  A    between atoms: _37  and  _39
REMARK   17  A    between atoms: _39  and  _40
REMARK   18  A    between atoms: _39  and  _42
REMARK   19  A    between atoms: _42  and  _43
REMARK   20  A    between atoms: _46  and  _48
REMARK   21  A    between atoms: _48  and  _49
REMARK   22  A    between atoms: _48  and  _51
REMARK   23  A    between atoms: _51  and  _52
REMARK   24  A    between atoms: _52  and  _53
REMARK   25  A    between atoms: _56  and  _58
REMARK   26  A    between atoms: _58  and  _59
REMARK   27  A    between atoms: _61  and  _63
REMARK   28  A    between atoms: _63  and  _64
REMARK   29  A    between atoms: _63  and  _66
REMARK   30  A    between atoms: _70  and  _71
REMARK   31  A    between atoms: _76  and  _78
REMARK   32  A    between atoms: _78  and  _79
REMARK   33  A    between atoms: _78  and  _81
REMARK   34  A    between atoms: _81  and  _82
REMARK   35  A    between atoms: _82  and  _83
REMARK   36  A    between atoms: _86  and  _88
REMARK   37  A    between atoms: _88  and  _89
REMARK   38  A    between atoms: _88  and  _91
REMARK   39  A    between atoms: _91  and  _92
REMARK   40  A    between atoms: _94  and  _96
REMARK   41  A    between atoms: _96  and  _97
REMARK   42  A    between atoms: _96  and  _99
REMARK   43  A    between atoms: _99  and  _100
REMARK   44  A    between atoms: _105  and  _107
REMARK   45  A    between atoms: _107  and  _108
REMARK   46  A    between atoms: _107  and  _110
REMARK   47  A    between atoms: _110  and  _111
REMARK   48  A    between atoms: _111  and  _112
REMARK   49  A    between atoms: _112  and  _113
REMARK   50  A    between atoms: _123  and  _124
REMARK   51  A    between atoms: _129  and  _131
REMARK   52  A    between atoms: _131  and  _132
REMARK   53  A    between atoms: _131  and  _134
REMARK   54  A    between atoms: _134  and  _135
REMARK   55  A    between atoms: _140  and  _141
REMARK   56  A    between atoms: _143  and  _145
REMARK   57  A    between atoms: _145  and  _146
REMARK   58  A    between atoms: _145  and  _148
REMARK   59  A    between atoms: _148  and  _149
REMARK   60  A    between atoms: _154  and  _155
REMARK   61  A    between atoms: _157  and  _159
REMARK   62  A    between atoms: _159  and  _160
REMARK   63  A    between atoms: _159  and  _162
REMARK   64  A    between atoms: _165  and  _167
REMARK   65  A    between atoms: _167  and  _168
REMARK   66  A    between atoms: _167  and  _170
REMARK   67  A    between atoms: _170  and  _171
REMARK   68  A    between atoms: _177  and  _178
REMARK   69  A    between atoms: _183  and  _185
REMARK   70  A    between atoms: _185  and  _186
REMARK   71  A    between atoms: _185  and  _188
REMARK   72  A    between atoms: _188  and  _189
REMARK   73  A    between atoms: _191  and  _193
REMARK   74  A    between atoms: _193  and  _194
REMARK   75  A    between atoms: _193  and  _196
REMARK   76  A    between atoms: _196  and  _197
REMARK   77  A    between atoms: _197  and  _198
REMARK   78  A    between atoms: _201  and  _203
REMARK   79  A    between atoms: _203  and  _204
REMARK   80  A    between atoms: _203  and  _206
REMARK   81  A    between atoms: _206  and  _207
REMARK   82  A    between atoms: _212  and  _213
REMARK   83  A    between atoms: _215  and  _217
REMARK   84  A    between atoms: _217  and  _218
REMARK   85  A    between atoms: _217  and  _220
REMARK   86  A    between atoms: _220  and  _221
REMARK   87  A    between atoms: _226  and  _228
REMARK   88  A    between atoms: _228  and  _229
REMARK   89  A    between atoms: _228  and  _231
REMARK   90  A    between atoms: _231  and  _232
REMARK   91  A    between atoms: _237  and  _239
REMARK   92  A    between atoms: _239  and  _240
REMARK   93  A    between atoms: _239  and  _242
REMARK   94  A    between atoms: _242  and  _243
REMARK   95  A    between atoms: _243  and  _244
REMARK   96  A    between atoms: _246  and  _248
REMARK   97  A    between atoms: _248  and  _249
REMARK   98  A    between atoms: _248  and  _251
REMARK   99  A    between atoms: _251  and  _252
REMARK  100  A    between atoms: _257  and  _258
REMARK  101  A    between atoms: _260  and  _262
REMARK  102  A    between atoms: _262  and  _263
REMARK  103  A    between atoms: _262  and  _265
REMARK  104  A    between atoms: _265  and  _266
REMARK  105  A    between atoms: _269  and  _271
REMARK  106  A    between atoms: _271  and  _272
REMARK  107  A    between atoms: _271  and  _274
REMARK  108  A    between atoms: _274  and  _275
REMARK  109  A    between atoms: _275  and  _492
REMARK  110  A    between atoms: _276  and  _278
REMARK  111  A    between atoms: _278  and  _279
REMARK  112  A    between atoms: _278  and  _281
REMARK  113  A    between atoms: _281  and  _282
REMARK  114  A    between atoms: _285  and  _287
REMARK  115  A    between atoms: _287  and  _288
REMARK  116  A    between atoms: _287  and  _290
REMARK  117  A    between atoms: _290  and  _291
REMARK  118  A    between atoms: _296  and  _297
REMARK  119  A    between atoms: _299  and  _301
REMARK  120  A    between atoms: _301  and  _302
REMARK  121  A    between atoms: _301  and  _304
REMARK  122  A    between atoms: _304  and  _305
REMARK  123  A    between atoms: _310  and  _311
REMARK  124  A    between atoms: _313  and  _315
REMARK  125  A    between atoms: _315  and  _316
REMARK  126  A    between atoms: _315  and  _318
REMARK  127  A    between atoms: _318  and  _319
REMARK  128  A    between atoms: _319  and  _320
REMARK  129  A    between atoms: _323  and  _325
REMARK  130  A    between atoms: _325  and  _326
REMARK  131  A    between atoms: _325  and  _328
REMARK  132  A    between atoms: _328  and  _329
REMARK  133  A    between atoms: _334  and  _335
REMARK  134  A    between atoms: _337  and  _339
REMARK  135  A    between atoms: _339  and  _340
REMARK  136  A    between atoms: _339  and  _342
REMARK  137  A    between atoms: _342  and  _343
REMARK  138  A    between atoms: _348  and  _350
REMARK  139  A    between atoms: _350  and  _351
REMARK  140  A    between atoms: _350  and  _353
REMARK  141  A    between atoms: _353  and  _354
REMARK  142  A    between atoms: _357  and  _359
REMARK  143  A    between atoms: _359  and  _360
REMARK  144  A    between atoms: _359  and  _362
REMARK  145  A    between atoms: _362  and  _363
REMARK  146  A    between atoms: _368  and  _370
REMARK  147  A    between atoms: _370  and  _371
REMARK  148  A    between atoms: _370  and  _373
REMARK  149  A    between atoms: _373  and  _374
REMARK  150  A    between atoms: _384  and  _386
REMARK  151  A    between atoms: _386  and  _387
REMARK  152  A    between atoms: _386  and  _389
REMARK  153  A    between atoms: _389  and  _390
REMARK  154  A    between atoms: _396  and  _398
REMARK  155  A    between atoms: _398  and  _399
REMARK  156  A    between atoms: _398  and  _401
REMARK  157  A    between atoms: _401  and  _402
REMARK  158  A    between atoms: _405  and  _407
REMARK  159  A    between atoms: _407  and  _408
REMARK  160  A    between atoms: _407  and  _410
REMARK  161  A    between atoms: _410  and  _411
REMARK  162  A    between atoms: _414  and  _416
REMARK  163  A    between atoms: _416  and  _417
REMARK  164  A    between atoms: _416  and  _419
REMARK  165  A    between atoms: _419  and  _420
REMARK  166  A    between atoms: _420  and  _421
REMARK  167  A    between atoms: _421  and  _422
REMARK  168  A    between atoms: _431  and  _433
REMARK  169  A    between atoms: _433  and  _434
REMARK  170  A    between atoms: _433  and  _436
REMARK  171  A    between atoms: _436  and  _437
REMARK  172  A    between atoms: _442  and  _444
REMARK  173  A    between atoms: _444  and  _445
REMARK  174  A    between atoms: _444  and  _447
REMARK  175  A    between atoms: _447  and  _448
REMARK  176  A    between atoms: _448  and  _449
REMARK  177  A    between atoms: _449  and  _450
REMARK  178  A    between atoms: _459  and  _461
REMARK  179  A    between atoms: _461  and  _462
REMARK  180  A    between atoms: _465  and  _467
REMARK  181  A    between atoms: _467  and  _468
REMARK  182  A    between atoms: _470  and  _472
REMARK  183  A    between atoms: _472  and  _473
REMARK  184  A    between atoms: _472  and  _475
REMARK  185  A    between atoms: _475  and  _476
REMARK  186  A    between atoms: _486  and  _488
REMARK  187  A    between atoms: _488  and  _489
REMARK  188  A    between atoms: _488  and  _491
REMARK  189  A    between atoms: _491  and  _492
REMARK  190  A    between atoms: _493  and  _495
REMARK  191  A    between atoms: _495  and  _496
REMARK  192  A    between atoms: _499  and  _501
REMARK  193  A    between atoms: _501  and  _502
REMARK  194  A    between atoms: _501  and  _504
REMARK  195  A    between atoms: _504  and  _505
REMARK  196  A    between atoms: _508  and  _510
REMARK  197  A    between atoms: _510  and  _511
REMARK  198  A    between atoms: _510  and  _513
REMARK  199  A    between atoms: _513  and  _514
REMARK  200  A    between atoms: _519  and  _520
REMARK  201  A    between atoms: _522  and  _524
REMARK  202  A    between atoms: _524  and  _525
REMARK  203  A    between atoms: _524  and  _527
REMARK  204  A    between atoms: _527  and  _528
REMARK  205  A    between atoms: _530  and  _532
REMARK  206  A    between atoms: _532  and  _533
REMARK  207  A    between atoms: _532  and  _535
REMARK  208  A    between atoms: _535  and  _536
REMARK  209  A    between atoms: _542  and  _544
REMARK  210  A    between atoms: _544  and  _545
REMARK  211  A    between atoms: _544  and  _547
REMARK  212  A    between atoms: _547  and  _548
REMARK  213  A    between atoms: _551  and  _553
REMARK  214  A    between atoms: _553  and  _554
REMARK  215  A    between atoms: _553  and  _556
REMARK  216  A    between atoms: _556  and  _557
REMARK  217  A    between atoms: _559  and  _561
REMARK  218  A    between atoms: _561  and  _562
REMARK  219  A    between atoms: _561  and  _564
REMARK  220  A    between atoms: _564  and  _565
REMARK  221  A    between atoms: _570  and  _572
REMARK  222  A    between atoms: _572  and  _573
REMARK  223  A    between atoms: _572  and  _575
REMARK  224  A    between atoms: _575  and  _576
REMARK  225  A    between atoms: _581  and  _583
REMARK  226  A    between atoms: _583  and  _584
REMARK  227  A    between atoms: _583  and  _586
REMARK  228  A    between atoms: _586  and  _587
REMARK  229  A    between atoms: _590  and  _592
REMARK  230  A    between atoms: _592  and  _593
REMARK  231  A    between atoms: _592  and  _595
REMARK  232  A    between atoms: _595  and  _596
REMARK  233  A    between atoms: _601  and  _602
REMARK  234  A    between atoms: _604  and  _606
REMARK  235  A    between atoms: _606  and  _607
REMARK  236  A    between atoms: _606  and  _609
REMARK  237  A    between atoms: _609  and  _610
REMARK  238  A    between atoms: _615  and  _616
REMARK  239  A    between atoms: _618  and  _620
REMARK  240  A    between atoms: _620  and  _621
REMARK  241  A    between atoms: _620  and  _623
REMARK  242  A    between atoms: _626  and  _628
REMARK  243  A    between atoms: _628  and  _629
REMARK  244  A    between atoms: _628  and  _631
REMARK  245  A    between atoms: _631  and  _632
REMARK  246  A    between atoms: _637  and  _639
REMARK  247  A    between atoms: _639  and  _640
REMARK  248  A    between atoms: _643  and  _645
REMARK  249  A    between atoms: _645  and  _646
REMARK  250  A    between atoms: _645  and  _648
REMARK  251  A    between atoms: _648  and  _649
REMARK  252  A    between atoms: _649  and  _650
REMARK  253  A    between atoms: _650  and  _651
REMARK  254  A    between atoms: _660  and  _662
REMARK  255  A    between atoms: _662  and  _663
REMARK  256  A    between atoms: _662  and  _665
REMARK  257  A    between atoms: _665  and  _666
REMARK  258  A    between atoms: _669  and  _671
REMARK  259  A    between atoms: _671  and  _672
REMARK  260  A    between atoms: _671  and  _674
REMARK  261  A    between atoms: _674  and  _675
REMARK  262  A    between atoms: _678  and  _680
REMARK  263  A    between atoms: _680  and  _681
REMARK  264  A    between atoms: _680  and  _683
REMARK  265  A    between atoms: _683  and  _684
REMARK                            x       y       z     vdW  Elec       q    Type
REMARK                         _______ _______ _______ _____ _____    ______ ____
ROOT
ATOM      1  O   HOH     1      -2.319  24.095  12.269  0.00  0.00    +0.000 OA
ENDROOT
TORSDOF 0
REMARK  Name = ../refined-set-2016/1b9j/1b9j_pocket.pdb
REMARK  265 active torsions:
REMARK  status: ('A' for Active; 'I' for Inactive)
REMARK    1  A    between atoms: _1  and  _3
REMARK    2  A    between atoms: _3  and  _4
REMARK    3  A    between atoms: _3  and  _6
REMARK    4  A    between atoms: _6  and  _7
REMARK    5  A    between atoms: _12  and  _14
REMARK    6  A    between atoms: _14  and  _15
REMARK    7  A    between atoms: _17  and  _19
REMARK    8  A    between atoms: _19  and  _20
REMARK    9  A    between atoms: _19  and  _22
REMARK   10  A    between atoms: _22  and  _23
REMARK   11  A    between atoms: _25  and  _27
REMARK   12  A    between atoms: _27  and  _28
REMARK   13  A    between atoms: _27  and  _30
REMARK   14  A    between atoms: _30  and  _31
REMARK   15  A    between atoms: _31  and  _32
REMARK   16  A    between atoms: _37  and  _39
REMARK   17  A    between atoms: _39  and  _40
REMARK   18  A    between atoms: _39  and  _42
REMARK   19  A    between atoms: _42  and  _43
REMARK   20  A    between atoms: _46  and  _48
REMARK   21  A    between atoms: _48  and  _49
REMARK   22  A    between atoms: _48  and  _51
REMARK   23  A    between atoms: _51  and  _52
REMARK   24  A    between atoms: _52  and  _53
REMARK   25  A    between atoms: _56  and  _58
REMARK   26  A    between atoms: _58  and  _59
REMARK   27  A    between atoms: _61  and  _63
REMARK   28  A    between atoms: _63  and  _64
REMARK   29  A    between atoms: _63  and  _66
REMARK   30  A    between atoms: _70  and  _71
REMARK   31  A    between atoms: _76  and  _78
REMARK   32  A    between atoms: _78  and  _79
REMARK   33  A    between atoms: _78  and  _81
REMARK   34  A    between atoms: _81  and  _82
REMARK   35  A    between atoms: _82  and  _83
REMARK   36  A    between atoms: _86  and  _88
REMARK   37  A    between atoms: _88  and  _89
REMARK   38  A    between atoms: _88  and  _91
REMARK   39  A    between atoms: _91  and  _92
REMARK   40  A    between atoms: _94  and  _96
REMARK   41  A    between atoms: _96  and  _97
REMARK   42  A    between atoms: _96  and  _99
REMARK   43  A    between atoms: _99  and  _100
REMARK   44  A    between atoms: _105  and  _107
REMARK   45  A    between atoms: _107  and  _108
REMARK   46  A    between atoms: _107  and  _110
REMARK   47  A    between atoms: _110  and  _111
REMARK   48  A    between atoms: _111  and  _112
REMARK   49  A    between atoms: _112  and  _113
REMARK   50  A    between atoms: _123  and  _124
REMARK   51  A    between atoms: _129  and  _131
REMARK   52  A    between atoms: _131  and  _132
REMARK   53  A    between atoms: _131  and  _134
REMARK   54  A    between atoms: _134  and  _135
REMARK   55  A    between atoms: _140  and  _141
REMARK   56  A    between atoms: _143  and  _145
REMARK   57  A    between atoms: _145  and  _146
REMARK   58  A    between atoms: _145  and  _148
REMARK   59  A    between atoms: _148  and  _149
REMARK   60  A    between atoms: _154  and  _155
REMARK   61  A    between atoms: _157  and  _159
REMARK   62  A    between atoms: _159  and  _160
REMARK   63  A    between atoms: _159  and  _162
REMARK   64  A    between atoms: _165  and  _167
REMARK   65  A    between atoms: _167  and  _168
REMARK   66  A    between atoms: _167  and  _170
REMARK   67  A    between atoms: _170  and  _171
REMARK   68  A    between atoms: _177  and  _178
REMARK   69  A    between atoms: _183  and  _185
REMARK   70  A    between atoms: _185  and  _186
REMARK   71  A    between atoms: _185  and  _188
REMARK   72  A    between atoms: _188  and  _189
REMARK   73  A    between atoms: _191  and  _193
REMARK   74  A    between atoms: _193  and  _194
REMARK   75  A    between atoms: _193  and  _196
REMARK   76  A    between atoms: _196  and  _197
REMARK   77  A    between atoms: _197  and  _198
REMARK   78  A    between atoms: _201  and  _203
REMARK   79  A    between atoms: _203  and  _204
REMARK   80  A    between atoms: _203  and  _206
REMARK   81  A    between atoms: _206  and  _207
REMARK   82  A    between atoms: _212  and  _213
REMARK   83  A    between atoms: _215  and  _217
REMARK   84  A    between atoms: _217  and  _218
REMARK   85  A    between atoms: _217  and  _220
REMARK   86  A    between atoms: _220  and  _221
REMARK   87  A    between atoms: _226  and  _228
REMARK   88  A    between atoms: _228  and  _229
REMARK   89  A    between atoms: _228  and  _231
REMARK   90  A    between atoms: _231  and  _232
REMARK   91  A    between atoms: _237  and  _239
REMARK   92  A    between atoms: _239  and  _240
REMARK   93  A    between atoms: _239  and  _242
REMARK   94  A    between atoms: _242  and  _243
REMARK   95  A    between atoms: _243  and  _244
REMARK   96  A    between atoms: _246  and  _248
REMARK   97  A    between atoms: _248  and  _249
REMARK   98  A    between atoms: _248  and  _251
REMARK   99  A    between atoms: _251  and  _252
REMARK  100  A    between atoms: _257  and  _258
REMARK  101  A    between atoms: _260  and  _262
REMARK  102  A    between atoms: _262  and  _263
REMARK  103  A    between atoms: _262  and  _265
REMARK  104  A    between atoms: _265  and  _266
REMARK  105  A    between atoms: _269  and  _271
REMARK  106  A    between atoms: _271  and  _272
REMARK  107  A    between atoms: _271  and  _274
REMARK  108  A    between atoms: _274  and  _275
REMARK  109  A    between atoms: _275  and  _492
REMARK  110  A    between atoms: _276  and  _278
REMARK  111  A    between atoms: _278  and  _279
REMARK  112  A    between atoms: _278  and  _281
REMARK  113  A    between atoms: _281  and  _282
REMARK  114  A    between atoms: _285  and  _287
REMARK  115  A    between atoms: _287  and  _288
REMARK  116  A    between atoms: _287  and  _290
REMARK  117  A    between atoms: _290  and  _291
REMARK  118  A    between atoms: _296  and  _297
REMARK  119  A    between atoms: _299  and  _301
REMARK  120  A    between atoms: _301  and  _302
REMARK  121  A    between atoms: _301  and  _304
REMARK  122  A    between atoms: _304  and  _305
REMARK  123  A    between atoms: _310  and  _311
REMARK  124  A    between atoms: _313  and  _315
REMARK  125  A    between atoms: _315  and  _316
REMARK  126  A    between atoms: _315  and  _318
REMARK  127  A    between atoms: _318  and  _319
REMARK  128  A    between atoms: _319  and  _320
REMARK  129  A    between atoms: _323  and  _325
REMARK  130  A    between atoms: _325  and  _326
REMARK  131  A    between atoms: _325  and  _328
REMARK  132  A    between atoms: _328  and  _329
REMARK  133  A    between atoms: _334  and  _335
REMARK  134  A    between atoms: _337  and  _339
REMARK  135  A    between atoms: _339  and  _340
REMARK  136  A    between atoms: _339  and  _342
REMARK  137  A    between atoms: _342  and  _343
REMARK  138  A    between atoms: _348  and  _350
REMARK  139  A    between atoms: _350  and  _351
REMARK  140  A    between atoms: _350  and  _353
REMARK  141  A    between atoms: _353  and  _354
REMARK  142  A    between atoms: _357  and  _359
REMARK  143  A    between atoms: _359  and  _360
REMARK  144  A    between atoms: _359  and  _362
REMARK  145  A    between atoms: _362  and  _363
REMARK  146  A    between atoms: _368  and  _370
REMARK  147  A    between atoms: _370  and  _371
REMARK  148  A    between atoms: _370  and  _373
REMARK  149  A    between atoms: _373  and  _374
REMARK  150  A    between atoms: _384  and  _386
REMARK  151  A    between atoms: _386  and  _387
REMARK  152  A    between atoms: _386  and  _389
REMARK  153  A    between atoms: _389  and  _390
REMARK  154  A    between atoms: _396  and  _398
REMARK  155  A    between atoms: _398  and  _399
REMARK  156  A    between atoms: _398  and  _401
REMARK  157  A    between atoms: _401  and  _402
REMARK  158  A    between atoms: _405  and  _407
REMARK  159  A    between atoms: _407  and  _408
REMARK  160  A    between atoms: _407  and  _410
REMARK  161  A    between atoms: _410  and  _411
REMARK  162  A    between atoms: _414  and  _416
REMARK  163  A    between atoms: _416  and  _417
REMARK  164  A    between atoms: _416  and  _419
REMARK  165  A    between atoms: _419  and  _420
REMARK  166  A    between atoms: _420  and  _421
REMARK  167  A    between atoms: _421  and  _422
REMARK  168  A    between atoms: _431  and  _433
REMARK  169  A    between atoms: _433  and  _434
REMARK  170  A    between atoms: _433  and  _436
REMARK  171  A    between atoms: _436  and  _437
REMARK  172  A    between atoms: _442  and  _444
REMARK  173  A    between atoms: _444  and  _445
REMARK  174  A    between atoms: _444  and  _447
REMARK  175  A    between atoms: _447  and  _448
REMARK  176  A    between atoms: _448  and  _449
REMARK  177  A    between atoms: _449  and  _450
REMARK  178  A    between atoms: _459  and  _461
REMARK  179  A    between atoms: _461  and  _462
REMARK  180  A    between atoms: _465  and  _467
REMARK  181  A    between atoms: _467  and  _468
REMARK  182  A    between atoms: _470  and  _472
REMARK  183  A    between atoms: _472  and  _473
REMARK  184  A    between atoms: _472  and  _475
REMARK  185  A    between atoms: _475  and  _476
REMARK  186  A    between atoms: _486  and  _488
REMARK  187  A    between atoms: _488  and  _489
REMARK  188  A    between atoms: _488  and  _491
REMARK  189  A    between atoms: _491  and  _492
REMARK  190  A    between atoms: _493  and  _495
REMARK  191  A    between atoms: _495  and  _496
REMARK  192  A    between atoms: _499  and  _501
REMARK  193  A    between atoms: _501  and  _502
REMARK  194  A    between atoms: _501  and  _504
REMARK  195  A    between atoms: _504  and  _505
REMARK  196  A    between atoms: _508  and  _510
REMARK  197  A    between atoms: _510  and  _511
REMARK  198  A    between atoms: _510  and  _513
REMARK  199  A    between atoms: _513  and  _514
REMARK  200  A    between atoms: _519  and  _520
REMARK  201  A    between atoms: _522  and  _524
REMARK  202  A    between atoms: _524  and  _525
REMARK  203  A    between atoms: _524  and  _527
REMARK  204  A    between atoms: _527  and  _528
REMARK  205  A    between atoms: _530  and  _532
REMARK  206  A    between atoms: _532  and  _533
REMARK  207  A    between atoms: _532  and  _535
REMARK  208  A    between atoms: _535  and  _536
REMARK  209  A    between atoms: _542  and  _544
REMARK  210  A    between atoms: _544  and  _545
REMARK  211  A    between atoms: _544  and  _547
REMARK  212  A    between atoms: _547  and  _548
REMARK  213  A    between atoms: _551  and  _553
REMARK  214  A    between atoms: _553  and  _554
REMARK  215  A    between atoms: _553  and  _556
REMARK  216  A    between atoms: _556  and  _557
REMARK  217  A    between atoms: _559  and  _561
REMARK  218  A    between atoms: _561  and  _562
REMARK  219  A    between atoms: _561  and  _564
REMARK  220  A    between atoms: _564  and  _565
REMARK  221  A    between atoms: _570  and  _572
REMARK  222  A    between atoms: _572  and  _573
REMARK  223  A    between atoms: _572  and  _575
REMARK  224  A    between atoms: _575  and  _576
REMARK  225  A    between atoms: _581  and  _583
REMARK  226  A    between atoms: _583  and  _584
REMARK  227  A    between atoms: _583  and  _586
REMARK  228  A    between atoms: _586  and  _587
REMARK  229  A    between atoms: _590  and  _592
REMARK  230  A    between atoms: _592  and  _593
REMARK  231  A    between atoms: _592  and  _595
REMARK  232  A    between atoms: _595  and  _596
REMARK  233  A    between atoms: _601  and  _602
REMARK  234  A    between atoms: _604  and  _606
REMARK  235  A    between atoms: _606  and  _607
REMARK  236  A    between atoms: _606  and  _609
REMARK  237  A    between atoms: _609  and  _610
REMARK  238  A    between atoms: _615  and  _616
REMARK  239  A    between atoms: _618  and  _620
REMARK  240  A    between atoms: _620  and  _621
REMARK  241  A    between atoms: _620  and  _623
REMARK  242  A    between atoms: _626  and  _628
REMARK  243  A    between atoms: _628  and  _629
REMARK  244  A    between atoms: _628  and  _631
REMARK  245  A    between atoms: _631  and  _632
REMARK  246  A    between atoms: _637  and  _639
REMARK  247  A    between atoms: _639  and  _640
REMARK  248  A    between atoms: _643  and  _645
REMARK  249  A    between atoms: _645  and  _646
REMARK  250  A    between atoms: _645  and  _648
REMARK  251  A    between atoms: _648  and  _649
REMARK  252  A    between atoms: _649  and  _650
REMARK  253  A    between atoms: _650  and  _651
REMARK  254  A    between atoms: _660  and  _662
REMARK  255  A    between atoms: _662  and  _663
REMARK  256  A    between atoms: _662  and  _665
REMARK  257  A    between atoms: _665  and  _666
REMARK  258  A    between atoms: _669  and  _671
REMARK  259  A    between atoms: _671  and  _672
REMARK  260  A    between atoms: _671  and  _674
REMARK  261  A    between atoms: _674  and  _675
REMARK  262  A    between atoms: _678  and  _680
REMARK  263  A    between atoms: _680  and  _681
REMARK  264  A    between atoms: _680  and  _683
REMARK  265  A    between atoms: _683  and  _684
REMARK                            x       y       z     vdW  Elec       q    Type
REMARK                         _______ _______ _______ _____ _____    ______ ____
ROOT
ATOM      1  O   HOH     1       4.438  13.571   9.307  0.00  0.00    +0.000 OA
ENDROOT
TORSDOF 0
REMARK  Name = ../refined-set-2016/1b9j/1b9j_pocket.pdb
REMARK  265 active torsions:
REMARK  status: ('A' for Active; 'I' for Inactive)
REMARK    1  A    between atoms: _1  and  _3
REMARK    2  A    between atoms: _3  and  _4
REMARK    3  A    between atoms: _3  and  _6
REMARK    4  A    between atoms: _6  and  _7
REMARK    5  A    between atoms: _12  and  _14
REMARK    6  A    between atoms: _14  and  _15
REMARK    7  A    between atoms: _17  and  _19
REMARK    8  A    between atoms: _19  and  _20
REMARK    9  A    between atoms: _19  and  _22
REMARK   10  A    between atoms: _22  and  _23
REMARK   11  A    between atoms: _25  and  _27
REMARK   12  A    between atoms: _27  and  _28
REMARK   13  A    between atoms: _27  and  _30
REMARK   14  A    between atoms: _30  and  _31
REMARK   15  A    between atoms: _31  and  _32
REMARK   16  A    between atoms: _37  and  _39
REMARK   17  A    between atoms: _39  and  _40
REMARK   18  A    between atoms: _39  and  _42
REMARK   19  A    between atoms: _42  and  _43
REMARK   20  A    between atoms: _46  and  _48
REMARK   21  A    between atoms: _48  and  _49
REMARK   22  A    between atoms: _48  and  _51
REMARK   23  A    between atoms: _51  and  _52
REMARK   24  A    between atoms: _52  and  _53
REMARK   25  A    between atoms: _56  and  _58
REMARK   26  A    between atoms: _58  and  _59
REMARK   27  A    between atoms: _61  and  _63
REMARK   28  A    between atoms: _63  and  _64
REMARK   29  A    between atoms: _63  and  _66
REMARK   30  A    between atoms: _70  and  _71
REMARK   31  A    between atoms: _76  and  _78
REMARK   32  A    between atoms: _78  and  _79
REMARK   33  A    between atoms: _78  and  _81
REMARK   34  A    between atoms: _81  and  _82
REMARK   35  A    between atoms: _82  and  _83
REMARK   36  A    between atoms: _86  and  _88
REMARK   37  A    between atoms: _88  and  _89
REMARK   38  A    between atoms: _88  and  _91
REMARK   39  A    between atoms: _91  and  _92
REMARK   40  A    between atoms: _94  and  _96
REMARK   41  A    between atoms: _96  and  _97
REMARK   42  A    between atoms: _96  and  _99
REMARK   43  A    between atoms: _99  and  _100
REMARK   44  A    between atoms: _105  and  _107
REMARK   45  A    between atoms: _107  and  _108
REMARK   46  A    between atoms: _107  and  _110
REMARK   47  A    between atoms: _110  and  _111
REMARK   48  A    between atoms: _111  and  _112
REMARK   49  A    between atoms: _112  and  _113
REMARK   50  A    between atoms: _123  and  _124
REMARK   51  A    between atoms: _129  and  _131
REMARK   52  A    between atoms: _131  and  _132
REMARK   53  A    between atoms: _131  and  _134
REMARK   54  A    between atoms: _134  and  _135
REMARK   55  A    between atoms: _140  and  _141
REMARK   56  A    between atoms: _143  and  _145
REMARK   57  A    between atoms: _145  and  _146
REMARK   58  A    between atoms: _145  and  _148
REMARK   59  A    between atoms: _148  and  _149
REMARK   60  A    between atoms: _154  and  _155
REMARK   61  A    between atoms: _157  and  _159
REMARK   62  A    between atoms: _159  and  _160
REMARK   63  A    between atoms: _159  and  _162
REMARK   64  A    between atoms: _165  and  _167
REMARK   65  A    between atoms: _167  and  _168
REMARK   66  A    between atoms: _167  and  _170
REMARK   67  A    between atoms: _170  and  _171
REMARK   68  A    between atoms: _177  and  _178
REMARK   69  A    between atoms: _183  and  _185
REMARK   70  A    between atoms: _185  and  _186
REMARK   71  A    between atoms: _185  and  _188
REMARK   72  A    between atoms: _188  and  _189
REMARK   73  A    between atoms: _191  and  _193
REMARK   74  A    between atoms: _193  and  _194
REMARK   75  A    between atoms: _193  and  _196
REMARK   76  A    between atoms: _196  and  _197
REMARK   77  A    between atoms: _197  and  _198
REMARK   78  A    between atoms: _201  and  _203
REMARK   79  A    between atoms: _203  and  _204
REMARK   80  A    between atoms: _203  and  _206
REMARK   81  A    between atoms: _206  and  _207
REMARK   82  A    between atoms: _212  and  _213
REMARK   83  A    between atoms: _215  and  _217
REMARK   84  A    between atoms: _217  and  _218
REMARK   85  A    between atoms: _217  and  _220
REMARK   86  A    between atoms: _220  and  _221
REMARK   87  A    between atoms: _226  and  _228
REMARK   88  A    between atoms: _228  and  _229
REMARK   89  A    between atoms: _228  and  _231
REMARK   90  A    between atoms: _231  and  _232
REMARK   91  A    between atoms: _237  and  _239
REMARK   92  A    between atoms: _239  and  _240
REMARK   93  A    between atoms: _239  and  _242
REMARK   94  A    between atoms: _242  and  _243
REMARK   95  A    between atoms: _243  and  _244
REMARK   96  A    between atoms: _246  and  _248
REMARK   97  A    between atoms: _248  and  _249
REMARK   98  A    between atoms: _248  and  _251
REMARK   99  A    between atoms: _251  and  _252
REMARK  100  A    between atoms: _257  and  _258
REMARK  101  A    between atoms: _260  and  _262
REMARK  102  A    between atoms: _262  and  _263
REMARK  103  A    between atoms: _262  and  _265
REMARK  104  A    between atoms: _265  and  _266
REMARK  105  A    between atoms: _269  and  _271
REMARK  106  A    between atoms: _271  and  _272
REMARK  107  A    between atoms: _271  and  _274
REMARK  108  A    between atoms: _274  and  _275
REMARK  109  A    between atoms: _275  and  _492
REMARK  110  A    between atoms: _276  and  _278
REMARK  111  A    between atoms: _278  and  _279
REMARK  112  A    between atoms: _278  and  _281
REMARK  113  A    between atoms: _281  and  _282
REMARK  114  A    between atoms: _285  and  _287
REMARK  115  A    between atoms: _287  and  _288
REMARK  116  A    between atoms: _287  and  _290
REMARK  117  A    between atoms: _290  and  _291
REMARK  118  A    between atoms: _296  and  _297
REMARK  119  A    between atoms: _299  and  _301
REMARK  120  A    between atoms: _301  and  _302
REMARK  121  A    between atoms: _301  and  _304
REMARK  122  A    between atoms: _304  and  _305
REMARK  123  A    between atoms: _310  and  _311
REMARK  124  A    between atoms: _313  and  _315
REMARK  125  A    between atoms: _315  and  _316
REMARK  126  A    between atoms: _315  and  _318
REMARK  127  A    between atoms: _318  and  _319
REMARK  128  A    between atoms: _319  and  _320
REMARK  129  A    between atoms: _323  and  _325
REMARK  130  A    between atoms: _325  and  _326
REMARK  131  A    between atoms: _325  and  _328
REMARK  132  A    between atoms: _328  and  _329
REMARK  133  A    between atoms: _334  and  _335
REMARK  134  A    between atoms: _337  and  _339
REMARK  135  A    between atoms: _339  and  _340
REMARK  136  A    between atoms: _339  and  _342
REMARK  137  A    between atoms: _342  and  _343
REMARK  138  A    between atoms: _348  and  _350
REMARK  139  A    between atoms: _350  and  _351
REMARK  140  A    between atoms: _350  and  _353
REMARK  141  A    between atoms: _353  and  _354
REMARK  142  A    between atoms: _357  and  _359
REMARK  143  A    between atoms: _359  and  _360
REMARK  144  A    between atoms: _359  and  _362
REMARK  145  A    between atoms: _362  and  _363
REMARK  146  A    between atoms: _368  and  _370
REMARK  147  A    between atoms: _370  and  _371
REMARK  148  A    between atoms: _370  and  _373
REMARK  149  A    between atoms: _373  and  _374
REMARK  150  A    between atoms: _384  and  _386
REMARK  151  A    between atoms: _386  and  _387
REMARK  152  A    between atoms: _386  and  _389
REMARK  153  A    between atoms: _389  and  _390
REMARK  154  A    between atoms: _396  and  _398
REMARK  155  A    between atoms: _398  and  _399
REMARK  156  A    between atoms: _398  and  _401
REMARK  157  A    between atoms: _401  and  _402
REMARK  158  A    between atoms: _405  and  _407
REMARK  159  A    between atoms: _407  and  _408
REMARK  160  A    between atoms: _407  and  _410
REMARK  161  A    between atoms: _410  and  _411
REMARK  162  A    between atoms: _414  and  _416
REMARK  163  A    between atoms: _416  and  _417
REMARK  164  A    between atoms: _416  and  _419
REMARK  165  A    between atoms: _419  and  _420
REMARK  166  A    between atoms: _420  and  _421
REMARK  167  A    between atoms: _421  and  _422
REMARK  168  A    between atoms: _431  and  _433
REMARK  169  A    between atoms: _433  and  _434
REMARK  170  A    between atoms: _433  and  _436
REMARK  171  A    between atoms: _436  and  _437
REMARK  172  A    between atoms: _442  and  _444
REMARK  173  A    between atoms: _444  and  _445
REMARK  174  A    between atoms: _444  and  _447
REMARK  175  A    between atoms: _447  and  _448
REMARK  176  A    between atoms: _448  and  _449
REMARK  177  A    between atoms: _449  and  _450
REMARK  178  A    between atoms: _459  and  _461
REMARK  179  A    between atoms: _461  and  _462
REMARK  180  A    between atoms: _465  and  _467
REMARK  181  A    between atoms: _467  and  _468
REMARK  182  A    between atoms: _470  and  _472
REMARK  183  A    between atoms: _472  and  _473
REMARK  184  A    between atoms: _472  and  _475
REMARK  185  A    between atoms: _475  and  _476
REMARK  186  A    between atoms: _486  and  _488
REMARK  187  A    between atoms: _488  and  _489
REMARK  188  A    between atoms: _488  and  _491
REMARK  189  A    between atoms: _491  and  _492
REMARK  190  A    between atoms: _493  and  _495
REMARK  191  A    between atoms: _495  and  _496
REMARK  192  A    between atoms: _499  and  _501
REMARK  193  A    between atoms: _501  and  _502
REMARK  194  A    between atoms: _501  and  _504
REMARK  195  A    between atoms: _504  and  _505
REMARK  196  A    between atoms: _508  and  _510
REMARK  197  A    between atoms: _510  and  _511
REMARK  198  A    between atoms: _510  and  _513
REMARK  199  A    between atoms: _513  and  _514
REMARK  200  A    between atoms: _519  and  _520
REMARK  201  A    between atoms: _522  and  _524
REMARK  202  A    between atoms: _524  and  _525
REMARK  203  A    between atoms: _524  and  _527
REMARK  204  A    between atoms: _527  and  _528
REMARK  205  A    between atoms: _530  and  _532
REMARK  206  A    between atoms: _532  and  _533
REMARK  207  A    between atoms: _532  and  _535
REMARK  208  A    between atoms: _535  and  _536
REMARK  209  A    between atoms: _542  and  _544
REMARK  210  A    between atoms: _544  and  _545
REMARK  211  A    between atoms: _544  and  _547
REMARK  212  A    between atoms: _547  and  _548
REMARK  213  A    between atoms: _551  and  _553
REMARK  214  A    between atoms: _553  and  _554
REMARK  215  A    between atoms: _553  and  _556
REMARK  216  A    between atoms: _556  and  _557
REMARK  217  A    between atoms: _559  and  _561
REMARK  218  A    between atoms: _561  and  _562
REMARK  219  A    between atoms: _561  and  _564
REMARK  220  A    between atoms: _564  and  _565
REMARK  221  A    between atoms: _570  and  _572
REMARK  222  A    between atoms: _572  and  _573
REMARK  223  A    between atoms: _572  and  _575
REMARK  224  A    between atoms: _575  and  _576
REMARK  225  A    between atoms: _581  and  _583
REMARK  226  A    between atoms: _583  and  _584
REMARK  227  A    between atoms: _583  and  _586
REMARK  228  A    between atoms: _586  and  _587
REMARK  229  A    between atoms: _590  and  _592
REMARK  230  A    between atoms: _592  and  _593
REMARK  231  A    between atoms: _592  and  _595
REMARK  232  A    between atoms: _595  and  _596
REMARK  233  A    between atoms: _601  and  _602
REMARK  234  A    between atoms: _604  and  _606
REMARK  235  A    between atoms: _606  and  _607
REMARK  236  A    between atoms: _606  and  _609
REMARK  237  A    between atoms: _609  and  _610
REMARK  238  A    between atoms: _615  and  _616
REMARK  239  A    between atoms: _618  and  _620
REMARK  240  A    between atoms: _620  and  _621
REMARK  241  A    between atoms: _620  and  _623
REMARK  242  A    between atoms: _626  and  _628
REMARK  243  A    between atoms: _628  and  _629
REMARK  244  A    between atoms: _628  and  _631
REMARK  245  A    between atoms: _631  and  _632
REMARK  246  A    between atoms: _637  and  _639
REMARK  247  A    between atoms: _639  and  _640
REMARK  248  A    between atoms: _643  and  _645
REMARK  249  A    between atoms: _645  and  _646
REMARK  250  A    between atoms: _645  and  _648
REMARK  251  A    between atoms: _648  and  _649
REMARK  252  A    between atoms: _649  and  _650
REMARK  253  A    between atoms: _650  and  _651
REMARK  254  A    between atoms: _660  and  _662
REMARK  255  A    between atoms: _662  and  _663
REMARK  256  A    between atoms: _662  and  _665
REMARK  257  A    between atoms: _665  and  _666
REMARK  258  A    between atoms: _669  and  _671
REMARK  259  A    between atoms: _671  and  _672
REMARK  260  A    between atoms: _671  and  _674
REMARK  261  A    between atoms: _674  and  _675
REMARK  262  A    between atoms: _678  and  _680
REMARK  263  A    between atoms: _680  and  _681
REMARK  264  A    between atoms: _680  and  _683
REMARK  265  A    between atoms: _683  and  _684
REMARK                            x       y       z     vdW  Elec       q    Type
REMARK                         _______ _______ _______ _____ _____    ______ ____
ROOT
ATOM      1  O   HOH     1      -0.589  14.792   8.819  0.00  0.00    +0.000 OA
ENDROOT
TORSDOF 0
REMARK  Name = ../refined-set-2016/1b9j/1b9j_pocket.pdb
REMARK  265 active torsions:
REMARK  status: ('A' for Active; 'I' for Inactive)
REMARK    1  A    between atoms: _1  and  _3
REMARK    2  A    between atoms: _3  and  _4
REMARK    3  A    between atoms: _3  and  _6
REMARK    4  A    between atoms: _6  and  _7
REMARK    5  A    between atoms: _12  and  _14
REMARK    6  A    between atoms: _14  and  _15
REMARK    7  A    between atoms: _17  and  _19
REMARK    8  A    between atoms: _19  and  _20
REMARK    9  A    between atoms: _19  and  _22
REMARK   10  A    between atoms: _22  and  _23
REMARK   11  A    between atoms: _25  and  _27
REMARK   12  A    between atoms: _27  and  _28
REMARK   13  A    between atoms: _27  and  _30
REMARK   14  A    between atoms: _30  and  _31
REMARK   15  A    between atoms: _31  and  _32
REMARK   16  A    between atoms: _37  and  _39
REMARK   17  A    between atoms: _39  and  _40
REMARK   18  A    between atoms: _39  and  _42
REMARK   19  A    between atoms: _42  and  _43
REMARK   20  A    between atoms: _46  and  _48
REMARK   21  A    between atoms: _48  and  _49
REMARK   22  A    between atoms: _48  and  _51
REMARK   23  A    between atoms: _51  and  _52
REMARK   24  A    between atoms: _52  and  _53
REMARK   25  A    between atoms: _56  and  _58
REMARK   26  A    between atoms: _58  and  _59
REMARK   27  A    between atoms: _61  and  _63
REMARK   28  A    between atoms: _63  and  _64
REMARK   29  A    between atoms: _63  and  _66
REMARK   30  A    between atoms: _70  and  _71
REMARK   31  A    between atoms: _76  and  _78
REMARK   32  A    between atoms: _78  and  _79
REMARK   33  A    between atoms: _78  and  _81
REMARK   34  A    between atoms: _81  and  _82
REMARK   35  A    between atoms: _82  and  _83
REMARK   36  A    between atoms: _86  and  _88
REMARK   37  A    between atoms: _88  and  _89
REMARK   38  A    between atoms: _88  and  _91
REMARK   39  A    between atoms: _91  and  _92
REMARK   40  A    between atoms: _94  and  _96
REMARK   41  A    between atoms: _96  and  _97
REMARK   42  A    between atoms: _96  and  _99
REMARK   43  A    between atoms: _99  and  _100
REMARK   44  A    between atoms: _105  and  _107
REMARK   45  A    between atoms: _107  and  _108
REMARK   46  A    between atoms: _107  and  _110
REMARK   47  A    between atoms: _110  and  _111
REMARK   48  A    between atoms: _111  and  _112
REMARK   49  A    between atoms: _112  and  _113
REMARK   50  A    between atoms: _123  and  _124
REMARK   51  A    between atoms: _129  and  _131
REMARK   52  A    between atoms: _131  and  _132
REMARK   53  A    between atoms: _131  and  _134
REMARK   54  A    between atoms: _134  and  _135
REMARK   55  A    between atoms: _140  and  _141
REMARK   56  A    between atoms: _143  and  _145
REMARK   57  A    between atoms: _145  and  _146
REMARK   58  A    between atoms: _145  and  _148
REMARK   59  A    between atoms: _148  and  _149
REMARK   60  A    between atoms: _154  and  _155
REMARK   61  A    between atoms: _157  and  _159
REMARK   62  A    between atoms: _159  and  _160
REMARK   63  A    between atoms: _159  and  _162
REMARK   64  A    between atoms: _165  and  _167
REMARK   65  A    between atoms: _167  and  _168
REMARK   66  A    between atoms: _167  and  _170
REMARK   67  A    between atoms: _170  and  _171
REMARK   68  A    between atoms: _177  and  _178
REMARK   69  A    between atoms: _183  and  _185
REMARK   70  A    between atoms: _185  and  _186
REMARK   71  A    between atoms: _185  and  _188
REMARK   72  A    between atoms: _188  and  _189
REMARK   73  A    between atoms: _191  and  _193
REMARK   74  A    between atoms: _193  and  _194
REMARK   75  A    between atoms: _193  and  _196
REMARK   76  A    between atoms: _196  and  _197
REMARK   77  A    between atoms: _197  and  _198
REMARK   78  A    between atoms: _201  and  _203
REMARK   79  A    between atoms: _203  and  _204
REMARK   80  A    between atoms: _203  and  _206
REMARK   81  A    between atoms: _206  and  _207
REMARK   82  A    between atoms: _212  and  _213
REMARK   83  A    between atoms: _215  and  _217
REMARK   84  A    between atoms: _217  and  _218
REMARK   85  A    between atoms: _217  and  _220
REMARK   86  A    between atoms: _220  and  _221
REMARK   87  A    between atoms: _226  and  _228
REMARK   88  A    between atoms: _228  and  _229
REMARK   89  A    between atoms: _228  and  _231
REMARK   90  A    between atoms: _231  and  _232
REMARK   91  A    between atoms: _237  and  _239
REMARK   92  A    between atoms: _239  and  _240
REMARK   93  A    between atoms: _239  and  _242
REMARK   94  A    between atoms: _242  and  _243
REMARK   95  A    between atoms: _243  and  _244
REMARK   96  A    between atoms: _246  and  _248
REMARK   97  A    between atoms: _248  and  _249
REMARK   98  A    between atoms: _248  and  _251
REMARK   99  A    between atoms: _251  and  _252
REMARK  100  A    between atoms: _257  and  _258
REMARK  101  A    between atoms: _260  and  _262
REMARK  102  A    between atoms: _262  and  _263
REMARK  103  A    between atoms: _262  and  _265
REMARK  104  A    between atoms: _265  and  _266
REMARK  105  A    between atoms: _269  and  _271
REMARK  106  A    between atoms: _271  and  _272
REMARK  107  A    between atoms: _271  and  _274
REMARK  108  A    between atoms: _274  and  _275
REMARK  109  A    between atoms: _275  and  _492
REMARK  110  A    between atoms: _276  and  _278
REMARK  111  A    between atoms: _278  and  _279
REMARK  112  A    between atoms: _278  and  _281
REMARK  113  A    between atoms: _281  and  _282
REMARK  114  A    between atoms: _285  and  _287
REMARK  115  A    between atoms: _287  and  _288
REMARK  116  A    between atoms: _287  and  _290
REMARK  117  A    between atoms: _290  and  _291
REMARK  118  A    between atoms: _296  and  _297
REMARK  119  A    between atoms: _299  and  _301
REMARK  120  A    between atoms: _301  and  _302
REMARK  121  A    between atoms: _301  and  _304
REMARK  122  A    between atoms: _304  and  _305
REMARK  123  A    between atoms: _310  and  _311
REMARK  124  A    between atoms: _313  and  _315
REMARK  125  A    between atoms: _315  and  _316
REMARK  126  A    between atoms: _315  and  _318
REMARK  127  A    between atoms: _318  and  _319
REMARK  128  A    between atoms: _319  and  _320
REMARK  129  A    between atoms: _323  and  _325
REMARK  130  A    between atoms: _325  and  _326
REMARK  131  A    between atoms: _325  and  _328
REMARK  132  A    between atoms: _328  and  _329
REMARK  133  A    between atoms: _334  and  _335
REMARK  134  A    between atoms: _337  and  _339
REMARK  135  A    between atoms: _339  and  _340
REMARK  136  A    between atoms: _339  and  _342
REMARK  137  A    between atoms: _342  and  _343
REMARK  138  A    between atoms: _348  and  _350
REMARK  139  A    between atoms: _350  and  _351
REMARK  140  A    between atoms: _350  and  _353
REMARK  141  A    between atoms: _353  and  _354
REMARK  142  A    between atoms: _357  and  _359
REMARK  143  A    between atoms: _359  and  _360
REMARK  144  A    between atoms: _359  and  _362
REMARK  145  A    between atoms: _362  and  _363
REMARK  146  A    between atoms: _368  and  _370
REMARK  147  A    between atoms: _370  and  _371
REMARK  148  A    between atoms: _370  and  _373
REMARK  149  A    between atoms: _373  and  _374
REMARK  150  A    between atoms: _384  and  _386
REMARK  151  A    between atoms: _386  and  _387
REMARK  152  A    between atoms: _386  and  _389
REMARK  153  A    between atoms: _389  and  _390
REMARK  154  A    between atoms: _396  and  _398
REMARK  155  A    between atoms: _398  and  _399
REMARK  156  A    between atoms: _398  and  _401
REMARK  157  A    between atoms: _401  and  _402
REMARK  158  A    between atoms: _405  and  _407
REMARK  159  A    between atoms: _407  and  _408
REMARK  160  A    between atoms: _407  and  _410
REMARK  161  A    between atoms: _410  and  _411
REMARK  162  A    between atoms: _414  and  _416
REMARK  163  A    between atoms: _416  and  _417
REMARK  164  A    between atoms: _416  and  _419
REMARK  165  A    between atoms: _419  and  _420
REMARK  166  A    between atoms: _420  and  _421
REMARK  167  A    between atoms: _421  and  _422
REMARK  168  A    between atoms: _431  and  _433
REMARK  169  A    between atoms: _433  and  _434
REMARK  170  A    between atoms: _433  and  _436
REMARK  171  A    between atoms: _436  and  _437
REMARK  172  A    between atoms: _442  and  _444
REMARK  173  A    between atoms: _444  and  _445
REMARK  174  A    between atoms: _444  and  _447
REMARK  175  A    between atoms: _447  and  _448
REMARK  176  A    between atoms: _448  and  _449
REMARK  177  A    between atoms: _449  and  _450
REMARK  178  A    between atoms: _459  and  _461
REMARK  179  A    between atoms: _461  and  _462
REMARK  180  A    between atoms: _465  and  _467
REMARK  181  A    between atoms: _467  and  _468
REMARK  182  A    between atoms: _470  and  _472
REMARK  183  A    between atoms: _472  and  _473
REMARK  184  A    between atoms: _472  and  _475
REMARK  185  A    between atoms: _475  and  _476
REMARK  186  A    between atoms: _486  and  _488
REMARK  187  A    between atoms: _488  and  _489
REMARK  188  A    between atoms: _488  and  _491
REMARK  189  A    between atoms: _491  and  _492
REMARK  190  A    between atoms: _493  and  _495
REMARK  191  A    between atoms: _495  and  _496
REMARK  192  A    between atoms: _499  and  _501
REMARK  193  A    between atoms: _501  and  _502
REMARK  194  A    between atoms: _501  and  _504
REMARK  195  A    between atoms: _504  and  _505
REMARK  196  A    between atoms: _508  and  _510
REMARK  197  A    between atoms: _510  and  _511
REMARK  198  A    between atoms: _510  and  _513
REMARK  199  A    between atoms: _513  and  _514
REMARK  200  A    between atoms: _519  and  _520
REMARK  201  A    between atoms: _522  and  _524
REMARK  202  A    between atoms: _524  and  _525
REMARK  203  A    between atoms: _524  and  _527
REMARK  204  A    between atoms: _527  and  _528
REMARK  205  A    between atoms: _530  and  _532
REMARK  206  A    between atoms: _532  and  _533
REMARK  207  A    between atoms: _532  and  _535
REMARK  208  A    between atoms: _535  and  _536
REMARK  209  A    between atoms: _542  and  _544
REMARK  210  A    between atoms: _544  and  _545
REMARK  211  A    between atoms: _544  and  _547
REMARK  212  A    between atoms: _547  and  _548
REMARK  213  A    between atoms: _551  and  _553
REMARK  214  A    between atoms: _553  and  _554
REMARK  215  A    between atoms: _553  and  _556
REMARK  216  A    between atoms: _556  and  _557
REMARK  217  A    between atoms: _559  and  _561
REMARK  218  A    between atoms: _561  and  _562
REMARK  219  A    between atoms: _561  and  _564
REMARK  220  A    between atoms: _564  and  _565
REMARK  221  A    between atoms: _570  and  _572
REMARK  222  A    between atoms: _572  and  _573
REMARK  223  A    between atoms: _572  and  _575
REMARK  224  A    between atoms: _575  and  _576
REMARK  225  A    between atoms: _581  and  _583
REMARK  226  A    between atoms: _583  and  _584
REMARK  227  A    between atoms: _583  and  _586
REMARK  228  A    between atoms: _586  and  _587
REMARK  229  A    between atoms: _590  and  _592
REMARK  230  A    between atoms: _592  and  _593
REMARK  231  A    between atoms: _592  and  _595
REMARK  232  A    between atoms: _595  and  _596
REMARK  233  A    between atoms: _601  and  _602
REMARK  234  A    between atoms: _604  and  _606
REMARK  235  A    between atoms: _606  and  _607
REMARK  236  A    between atoms: _606  and  _609
REMARK  237  A    between atoms: _609  and  _610
REMARK  238  A    between atoms: _615  and  _616
REMARK  239  A    between atoms: _618  and  _620
REMARK  240  A    between atoms: _620  and  _621
REMARK  241  A    between atoms: _620  and  _623
REMARK  242  A    between atoms: _626  and  _628
REMARK  243  A    between atoms: _628  and  _629
REMARK  244  A    between atoms: _628  and  _631
REMARK  245  A    between atoms: _631  and  _632
REMARK  246  A    between atoms: _637  and  _639
REMARK  247  A    between atoms: _639  and  _640
REMARK  248  A    between atoms: _643  and  _645
REMARK  249  A    between atoms: _645  and  _646
REMARK  250  A    between atoms: _645  and  _648
REMARK  251  A    between atoms: _648  and  _649
REMARK  252  A    between atoms: _649  and  _650
REMARK  253  A    between atoms: _650  and  _651
REMARK  254  A    between atoms: _660  and  _662
REMARK  255  A    between atoms: _662  and  _663
REMARK  256  A    between atoms: _662  and  _665
REMARK  257  A    between atoms: _665  and  _666
REMARK  258  A    between atoms: _669  and  _671
REMARK  259  A    between atoms: _671  and  _672
REMARK  260  A    between atoms: _671  and  _674
REMARK  261  A    between atoms: _674  and  _675
REMARK  262  A    between atoms: _678  and  _680
REMARK  263  A    between atoms: _680  and  _681
REMARK  264  A    between atoms: _680  and  _683
REMARK  265  A    between atoms: _683  and  _684
REMARK                            x       y       z     vdW  Elec       q    Type
REMARK                         _______ _______ _______ _____ _____    ______ ____
ROOT
ATOM      1  O   HOH     1      -8.535  15.490  16.915  0.00  0.00    +0.000 OA
ENDROOT
TORSDOF 0
REMARK  Name = ../refined-set-2016/1b9j/1b9j_pocket.pdb
REMARK  265 active torsions:
REMARK  status: ('A' for Active; 'I' for Inactive)
REMARK    1  A    between atoms: _1  and  _3
REMARK    2  A    between atoms: _3  and  _4
REMARK    3  A    between atoms: _3  and  _6
REMARK    4  A    between atoms: _6  and  _7
REMARK    5  A    between atoms: _12  and  _14
REMARK    6  A    between atoms: _14  and  _15
REMARK    7  A    between atoms: _17  and  _19
REMARK    8  A    between atoms: _19  and  _20
REMARK    9  A    between atoms: _19  and  _22
REMARK   10  A    between atoms: _22  and  _23
REMARK   11  A    between atoms: _25  and  _27
REMARK   12  A    between atoms: _27  and  _28
REMARK   13  A    between atoms: _27  and  _30
REMARK   14  A    between atoms: _30  and  _31
REMARK   15  A    between atoms: _31  and  _32
REMARK   16  A    between atoms: _37  and  _39
REMARK   17  A    between atoms: _39  and  _40
REMARK   18  A    between atoms: _39  and  _42
REMARK   19  A    between atoms: _42  and  _43
REMARK   20  A    between atoms: _46  and  _48
REMARK   21  A    between atoms: _48  and  _49
REMARK   22  A    between atoms: _48  and  _51
REMARK   23  A    between atoms: _51  and  _52
REMARK   24  A    between atoms: _52  and  _53
REMARK   25  A    between atoms: _56  and  _58
REMARK   26  A    between atoms: _58  and  _59
REMARK   27  A    between atoms: _61  and  _63
REMARK   28  A    between atoms: _63  and  _64
REMARK   29  A    between atoms: _63  and  _66
REMARK   30  A    between atoms: _70  and  _71
REMARK   31  A    between atoms: _76  and  _78
REMARK   32  A    between atoms: _78  and  _79
REMARK   33  A    between atoms: _78  and  _81
REMARK   34  A    between atoms: _81  and  _82
REMARK   35  A    between atoms: _82  and  _83
REMARK   36  A    between atoms: _86  and  _88
REMARK   37  A    between atoms: _88  and  _89
REMARK   38  A    between atoms: _88  and  _91
REMARK   39  A    between atoms: _91  and  _92
REMARK   40  A    between atoms: _94  and  _96
REMARK   41  A    between atoms: _96  and  _97
REMARK   42  A    between atoms: _96  and  _99
REMARK   43  A    between atoms: _99  and  _100
REMARK   44  A    between atoms: _105  and  _107
REMARK   45  A    between atoms: _107  and  _108
REMARK   46  A    between atoms: _107  and  _110
REMARK   47  A    between atoms: _110  and  _111
REMARK   48  A    between atoms: _111  and  _112
REMARK   49  A    between atoms: _112  and  _113
REMARK   50  A    between atoms: _123  and  _124
REMARK   51  A    between atoms: _129  and  _131
REMARK   52  A    between atoms: _131  and  _132
REMARK   53  A    between atoms: _131  and  _134
REMARK   54  A    between atoms: _134  and  _135
REMARK   55  A    between atoms: _140  and  _141
REMARK   56  A    between atoms: _143  and  _145
REMARK   57  A    between atoms: _145  and  _146
REMARK   58  A    between atoms: _145  and  _148
REMARK   59  A    between atoms: _148  and  _149
REMARK   60  A    between atoms: _154  and  _155
REMARK   61  A    between atoms: _157  and  _159
REMARK   62  A    between atoms: _159  and  _160
REMARK   63  A    between atoms: _159  and  _162
REMARK   64  A    between atoms: _165  and  _167
REMARK   65  A    between atoms: _167  and  _168
REMARK   66  A    between atoms: _167  and  _170
REMARK   67  A    between atoms: _170  and  _171
REMARK   68  A    between atoms: _177  and  _178
REMARK   69  A    between atoms: _183  and  _185
REMARK   70  A    between atoms: _185  and  _186
REMARK   71  A    between atoms: _185  and  _188
REMARK   72  A    between atoms: _188  and  _189
REMARK   73  A    between atoms: _191  and  _193
REMARK   74  A    between atoms: _193  and  _194
REMARK   75  A    between atoms: _193  and  _196
REMARK   76  A    between atoms: _196  and  _197
REMARK   77  A    between atoms: _197  and  _198
REMARK   78  A    between atoms: _201  and  _203
REMARK   79  A    between atoms: _203  and  _204
REMARK   80  A    between atoms: _203  and  _206
REMARK   81  A    between atoms: _206  and  _207
REMARK   82  A    between atoms: _212  and  _213
REMARK   83  A    between atoms: _215  and  _217
REMARK   84  A    between atoms: _217  and  _218
REMARK   85  A    between atoms: _217  and  _220
REMARK   86  A    between atoms: _220  and  _221
REMARK   87  A    between atoms: _226  and  _228
REMARK   88  A    between atoms: _228  and  _229
REMARK   89  A    between atoms: _228  and  _231
REMARK   90  A    between atoms: _231  and  _232
REMARK   91  A    between atoms: _237  and  _239
REMARK   92  A    between atoms: _239  and  _240
REMARK   93  A    between atoms: _239  and  _242
REMARK   94  A    between atoms: _242  and  _243
REMARK   95  A    between atoms: _243  and  _244
REMARK   96  A    between atoms: _246  and  _248
REMARK   97  A    between atoms: _248  and  _249
REMARK   98  A    between atoms: _248  and  _251
REMARK   99  A    between atoms: _251  and  _252
REMARK  100  A    between atoms: _257  and  _258
REMARK  101  A    between atoms: _260  and  _262
REMARK  102  A    between atoms: _262  and  _263
REMARK  103  A    between atoms: _262  and  _265
REMARK  104  A    between atoms: _265  and  _266
REMARK  105  A    between atoms: _269  and  _271
REMARK  106  A    between atoms: _271  and  _272
REMARK  107  A    between atoms: _271  and  _274
REMARK  108  A    between atoms: _274  and  _275
REMARK  109  A    between atoms: _275  and  _492
REMARK  110  A    between atoms: _276  and  _278
REMARK  111  A    between atoms: _278  and  _279
REMARK  112  A    between atoms: _278  and  _281
REMARK  113  A    between atoms: _281  and  _282
REMARK  114  A    between atoms: _285  and  _287
REMARK  115  A    between atoms: _287  and  _288
REMARK  116  A    between atoms: _287  and  _290
REMARK  117  A    between atoms: _290  and  _291
REMARK  118  A    between atoms: _296  and  _297
REMARK  119  A    between atoms: _299  and  _301
REMARK  120  A    between atoms: _301  and  _302
REMARK  121  A    between atoms: _301  and  _304
REMARK  122  A    between atoms: _304  and  _305
REMARK  123  A    between atoms: _310  and  _311
REMARK  124  A    between atoms: _313  and  _315
REMARK  125  A    between atoms: _315  and  _316
REMARK  126  A    between atoms: _315  and  _318
REMARK  127  A    between atoms: _318  and  _319
REMARK  128  A    between atoms: _319  and  _320
REMARK  129  A    between atoms: _323  and  _325
REMARK  130  A    between atoms: _325  and  _326
REMARK  131  A    between atoms: _325  and  _328
REMARK  132  A    between atoms: _328  and  _329
REMARK  133  A    between atoms: _334  and  _335
REMARK  134  A    between atoms: _337  and  _339
REMARK  135  A    between atoms: _339  and  _340
REMARK  136  A    between atoms: _339  and  _342
REMARK  137  A    between atoms: _342  and  _343
REMARK  138  A    between atoms: _348  and  _350
REMARK  139  A    between atoms: _350  and  _351
REMARK  140  A    between atoms: _350  and  _353
REMARK  141  A    between atoms: _353  and  _354
REMARK  142  A    between atoms: _357  and  _359
REMARK  143  A    between atoms: _359  and  _360
REMARK  144  A    between atoms: _359  and  _362
REMARK  145  A    between atoms: _362  and  _363
REMARK  146  A    between atoms: _368  and  _370
REMARK  147  A    between atoms: _370  and  _371
REMARK  148  A    between atoms: _370  and  _373
REMARK  149  A    between atoms: _373  and  _374
REMARK  150  A    between atoms: _384  and  _386
REMARK  151  A    between atoms: _386  and  _387
REMARK  152  A    between atoms: _386  and  _389
REMARK  153  A    between atoms: _389  and  _390
REMARK  154  A    between atoms: _396  and  _398
REMARK  155  A    between atoms: _398  and  _399
REMARK  156  A    between atoms: _398  and  _401
REMARK  157  A    between atoms: _401  and  _402
REMARK  158  A    between atoms: _405  and  _407
REMARK  159  A    between atoms: _407  and  _408
REMARK  160  A    between atoms: _407  and  _410
REMARK  161  A    between atoms: _410  and  _411
REMARK  162  A    between atoms: _414  and  _416
REMARK  163  A    between atoms: _416  and  _417
REMARK  164  A    between atoms: _416  and  _419
REMARK  165  A    between atoms: _419  and  _420
REMARK  166  A    between atoms: _420  and  _421
REMARK  167  A    between atoms: _421  and  _422
REMARK  168  A    between atoms: _431  and  _433
REMARK  169  A    between atoms: _433  and  _434
REMARK  170  A    between atoms: _433  and  _436
REMARK  171  A    between atoms: _436  and  _437
REMARK  172  A    between atoms: _442  and  _444
REMARK  173  A    between atoms: _444  and  _445
REMARK  174  A    between atoms: _444  and  _447
REMARK  175  A    between atoms: _447  and  _448
REMARK  176  A    between atoms: _448  and  _449
REMARK  177  A    between atoms: _449  and  _450
REMARK  178  A    between atoms: _459  and  _461
REMARK  179  A    between atoms: _461  and  _462
REMARK  180  A    between atoms: _465  and  _467
REMARK  181  A    between atoms: _467  and  _468
REMARK  182  A    between atoms: _470  and  _472
REMARK  183  A    between atoms: _472  and  _473
REMARK  184  A    between atoms: _472  and  _475
REMARK  185  A    between atoms: _475  and  _476
REMARK  186  A    between atoms: _486  and  _488
REMARK  187  A    between atoms: _488  and  _489
REMARK  188  A    between atoms: _488  and  _491
REMARK  189  A    between atoms: _491  and  _492
REMARK  190  A    between atoms: _493  and  _495
REMARK  191  A    between atoms: _495  and  _496
REMARK  192  A    between atoms: _499  and  _501
REMARK  193  A    between atoms: _501  and  _502
REMARK  194  A    between atoms: _501  and  _504
REMARK  195  A    between atoms: _504  and  _505
REMARK  196  A    between atoms: _508  and  _510
REMARK  197  A    between atoms: _510  and  _511
REMARK  198  A    between atoms: _510  and  _513
REMARK  199  A    between atoms: _513  and  _514
REMARK  200  A    between atoms: _519  and  _520
REMARK  201  A    between atoms: _522  and  _524
REMARK  202  A    between atoms: _524  and  _525
REMARK  203  A    between atoms: _524  and  _527
REMARK  204  A    between atoms: _527  and  _528
REMARK  205  A    between atoms: _530  and  _532
REMARK  206  A    between atoms: _532  and  _533
REMARK  207  A    between atoms: _532  and  _535
REMARK  208  A    between atoms: _535  and  _536
REMARK  209  A    between atoms: _542  and  _544
REMARK  210  A    between atoms: _544  and  _545
REMARK  211  A    between atoms: _544  and  _547
REMARK  212  A    between atoms: _547  and  _548
REMARK  213  A    between atoms: _551  and  _553
REMARK  214  A    between atoms: _553  and  _554
REMARK  215  A    between atoms: _553  and  _556
REMARK  216  A    between atoms: _556  and  _557
REMARK  217  A    between atoms: _559  and  _561
REMARK  218  A    between atoms: _561  and  _562
REMARK  219  A    between atoms: _561  and  _564
REMARK  220  A    between atoms: _564  and  _565
REMARK  221  A    between atoms: _570  and  _572
REMARK  222  A    between atoms: _572  and  _573
REMARK  223  A    between atoms: _572  and  _575
REMARK  224  A    between atoms: _575  and  _576
REMARK  225  A    between atoms: _581  and  _583
REMARK  226  A    between atoms: _583  and  _584
REMARK  227  A    between atoms: _583  and  _586
REMARK  228  A    between atoms: _586  and  _587
REMARK  229  A    between atoms: _590  and  _592
REMARK  230  A    between atoms: _592  and  _593
REMARK  231  A    between atoms: _592  and  _595
REMARK  232  A    between atoms: _595  and  _596
REMARK  233  A    between atoms: _601  and  _602
REMARK  234  A    between atoms: _604  and  _606
REMARK  235  A    between atoms: _606  and  _607
REMARK  236  A    between atoms: _606  and  _609
REMARK  237  A    between atoms: _609  and  _610
REMARK  238  A    between atoms: _615  and  _616
REMARK  239  A    between atoms: _618  and  _620
REMARK  240  A    between atoms: _620  and  _621
REMARK  241  A    between atoms: _620  and  _623
REMARK  242  A    between atoms: _626  and  _628
REMARK  243  A    between atoms: _628  and  _629
REMARK  244  A    between atoms: _628  and  _631
REMARK  245  A    between atoms: _631  and  _632
REMARK  246  A    between atoms: _637  and  _639
REMARK  247  A    between atoms: _639  and  _640
REMARK  248  A    between atoms: _643  and  _645
REMARK  249  A    between atoms: _645  and  _646
REMARK  250  A    between atoms: _645  and  _648
REMARK  251  A    between atoms: _648  and  _649
REMARK  252  A    between atoms: _649  and  _650
REMARK  253  A    between atoms: _650  and  _651
REMARK  254  A    between atoms: _660  and  _662
REMARK  255  A    between atoms: _662  and  _663
REMARK  256  A    between atoms: _662  and  _665
REMARK  257  A    between atoms: _665  and  _666
REMARK  258  A    between atoms: _669  and  _671
REMARK  259  A    between atoms: _671  and  _672
REMARK  260  A    between atoms: _671  and  _674
REMARK  261  A    between atoms: _674  and  _675
REMARK  262  A    between atoms: _678  and  _680
REMARK  263  A    between atoms: _680  and  _681
REMARK  264  A    between atoms: _680  and  _683
REMARK  265  A    between atoms: _683  and  _684
REMARK                            x       y       z     vdW  Elec       q    Type
REMARK                         _______ _______ _______ _____ _____    ______ ____
ROOT
ATOM      1  O   HOH     1      -3.176  17.453   5.373  0.00  0.00    +0.000 OA
ENDROOT
TORSDOF 0
REMARK  Name = ../refined-set-2016/1b9j/1b9j_pocket.pdb
REMARK  265 active torsions:
REMARK  status: ('A' for Active; 'I' for Inactive)
REMARK    1  A    between atoms: _1  and  _3
REMARK    2  A    between atoms: _3  and  _4
REMARK    3  A    between atoms: _3  and  _6
REMARK    4  A    between atoms: _6  and  _7
REMARK    5  A    between atoms: _12  and  _14
REMARK    6  A    between atoms: _14  and  _15
REMARK    7  A    between atoms: _17  and  _19
REMARK    8  A    between atoms: _19  and  _20
REMARK    9  A    between atoms: _19  and  _22
REMARK   10  A    between atoms: _22  and  _23
REMARK   11  A    between atoms: _25  and  _27
REMARK   12  A    between atoms: _27  and  _28
REMARK   13  A    between atoms: _27  and  _30
REMARK   14  A    between atoms: _30  and  _31
REMARK   15  A    between atoms: _31  and  _32
REMARK   16  A    between atoms: _37  and  _39
REMARK   17  A    between atoms: _39  and  _40
REMARK   18  A    between atoms: _39  and  _42
REMARK   19  A    between atoms: _42  and  _43
REMARK   20  A    between atoms: _46  and  _48
REMARK   21  A    between atoms: _48  and  _49
REMARK   22  A    between atoms: _48  and  _51
REMARK   23  A    between atoms: _51  and  _52
REMARK   24  A    between atoms: _52  and  _53
REMARK   25  A    between atoms: _56  and  _58
REMARK   26  A    between atoms: _58  and  _59
REMARK   27  A    between atoms: _61  and  _63
REMARK   28  A    between atoms: _63  and  _64
REMARK   29  A    between atoms: _63  and  _66
REMARK   30  A    between atoms: _70  and  _71
REMARK   31  A    between atoms: _76  and  _78
REMARK   32  A    between atoms: _78  and  _79
REMARK   33  A    between atoms: _78  and  _81
REMARK   34  A    between atoms: _81  and  _82
REMARK   35  A    between atoms: _82  and  _83
REMARK   36  A    between atoms: _86  and  _88
REMARK   37  A    between atoms: _88  and  _89
REMARK   38  A    between atoms: _88  and  _91
REMARK   39  A    between atoms: _91  and  _92
REMARK   40  A    between atoms: _94  and  _96
REMARK   41  A    between atoms: _96  and  _97
REMARK   42  A    between atoms: _96  and  _99
REMARK   43  A    between atoms: _99  and  _100
REMARK   44  A    between atoms: _105  and  _107
REMARK   45  A    between atoms: _107  and  _108
REMARK   46  A    between atoms: _107  and  _110
REMARK   47  A    between atoms: _110  and  _111
REMARK   48  A    between atoms: _111  and  _112
REMARK   49  A    between atoms: _112  and  _113
REMARK   50  A    between atoms: _123  and  _124
REMARK   51  A    between atoms: _129  and  _131
REMARK   52  A    between atoms: _131  and  _132
REMARK   53  A    between atoms: _131  and  _134
REMARK   54  A    between atoms: _134  and  _135
REMARK   55  A    between atoms: _140  and  _141
REMARK   56  A    between atoms: _143  and  _145
REMARK   57  A    between atoms: _145  and  _146
REMARK   58  A    between atoms: _145  and  _148
REMARK   59  A    between atoms: _148  and  _149
REMARK   60  A    between atoms: _154  and  _155
REMARK   61  A    between atoms: _157  and  _159
REMARK   62  A    between atoms: _159  and  _160
REMARK   63  A    between atoms: _159  and  _162
REMARK   64  A    between atoms: _165  and  _167
REMARK   65  A    between atoms: _167  and  _168
REMARK   66  A    between atoms: _167  and  _170
REMARK   67  A    between atoms: _170  and  _171
REMARK   68  A    between atoms: _177  and  _178
REMARK   69  A    between atoms: _183  and  _185
REMARK   70  A    between atoms: _185  and  _186
REMARK   71  A    between atoms: _185  and  _188
REMARK   72  A    between atoms: _188  and  _189
REMARK   73  A    between atoms: _191  and  _193
REMARK   74  A    between atoms: _193  and  _194
REMARK   75  A    between atoms: _193  and  _196
REMARK   76  A    between atoms: _196  and  _197
REMARK   77  A    between atoms: _197  and  _198
REMARK   78  A    between atoms: _201  and  _203
REMARK   79  A    between atoms: _203  and  _204
REMARK   80  A    between atoms: _203  and  _206
REMARK   81  A    between atoms: _206  and  _207
REMARK   82  A    between atoms: _212  and  _213
REMARK   83  A    between atoms: _215  and  _217
REMARK   84  A    between atoms: _217  and  _218
REMARK   85  A    between atoms: _217  and  _220
REMARK   86  A    between atoms: _220  and  _221
REMARK   87  A    between atoms: _226  and  _228
REMARK   88  A    between atoms: _228  and  _229
REMARK   89  A    between atoms: _228  and  _231
REMARK   90  A    between atoms: _231  and  _232
REMARK   91  A    between atoms: _237  and  _239
REMARK   92  A    between atoms: _239  and  _240
REMARK   93  A    between atoms: _239  and  _242
REMARK   94  A    between atoms: _242  and  _243
REMARK   95  A    between atoms: _243  and  _244
REMARK   96  A    between atoms: _246  and  _248
REMARK   97  A    between atoms: _248  and  _249
REMARK   98  A    between atoms: _248  and  _251
REMARK   99  A    between atoms: _251  and  _252
REMARK  100  A    between atoms: _257  and  _258
REMARK  101  A    between atoms: _260  and  _262
REMARK  102  A    between atoms: _262  and  _263
REMARK  103  A    between atoms: _262  and  _265
REMARK  104  A    between atoms: _265  and  _266
REMARK  105  A    between atoms: _269  and  _271
REMARK  106  A    between atoms: _271  and  _272
REMARK  107  A    between atoms: _271  and  _274
REMARK  108  A    between atoms: _274  and  _275
REMARK  109  A    between atoms: _275  and  _492
REMARK  110  A    between atoms: _276  and  _278
REMARK  111  A    between atoms: _278  and  _279
REMARK  112  A    between atoms: _278  and  _281
REMARK  113  A    between atoms: _281  and  _282
REMARK  114  A    between atoms: _285  and  _287
REMARK  115  A    between atoms: _287  and  _288
REMARK  116  A    between atoms: _287  and  _290
REMARK  117  A    between atoms: _290  and  _291
REMARK  118  A    between atoms: _296  and  _297
REMARK  119  A    between atoms: _299  and  _301
REMARK  120  A    between atoms: _301  and  _302
REMARK  121  A    between atoms: _301  and  _304
REMARK  122  A    between atoms: _304  and  _305
REMARK  123  A    between atoms: _310  and  _311
REMARK  124  A    between atoms: _313  and  _315
REMARK  125  A    between atoms: _315  and  _316
REMARK  126  A    between atoms: _315  and  _318
REMARK  127  A    between atoms: _318  and  _319
REMARK  128  A    between atoms: _319  and  _320
REMARK  129  A    between atoms: _323  and  _325
REMARK  130  A    between atoms: _325  and  _326
REMARK  131  A    between atoms: _325  and  _328
REMARK  132  A    between atoms: _328  and  _329
REMARK  133  A    between atoms: _334  and  _335
REMARK  134  A    between atoms: _337  and  _339
REMARK  135  A    between atoms: _339  and  _340
REMARK  136  A    between atoms: _339  and  _342
REMARK  137  A    between atoms: _342  and  _343
REMARK  138  A    between atoms: _348  and  _350
REMARK  139  A    between atoms: _350  and  _351
REMARK  140  A    between atoms: _350  and  _353
REMARK  141  A    between atoms: _353  and  _354
REMARK  142  A    between atoms: _357  and  _359
REMARK  143  A    between atoms: _359  and  _360
REMARK  144  A    between atoms: _359  and  _362
REMARK  145  A    between atoms: _362  and  _363
REMARK  146  A    between atoms: _368  and  _370
REMARK  147  A    between atoms: _370  and  _371
REMARK  148  A    between atoms: _370  and  _373
REMARK  149  A    between atoms: _373  and  _374
REMARK  150  A    between atoms: _384  and  _386
REMARK  151  A    between atoms: _386  and  _387
REMARK  152  A    between atoms: _386  and  _389
REMARK  153  A    between atoms: _389  and  _390
REMARK  154  A    between atoms: _396  and  _398
REMARK  155  A    between atoms: _398  and  _399
REMARK  156  A    between atoms: _398  and  _401
REMARK  157  A    between atoms: _401  and  _402
REMARK  158  A    between atoms: _405  and  _407
REMARK  159  A    between atoms: _407  and  _408
REMARK  160  A    between atoms: _407  and  _410
REMARK  161  A    between atoms: _410  and  _411
REMARK  162  A    between atoms: _414  and  _416
REMARK  163  A    between atoms: _416  and  _417
REMARK  164  A    between atoms: _416  and  _419
REMARK  165  A    between atoms: _419  and  _420
REMARK  166  A    between atoms: _420  and  _421
REMARK  167  A    between atoms: _421  and  _422
REMARK  168  A    between atoms: _431  and  _433
REMARK  169  A    between atoms: _433  and  _434
REMARK  170  A    between atoms: _433  and  _436
REMARK  171  A    between atoms: _436  and  _437
REMARK  172  A    between atoms: _442  and  _444
REMARK  173  A    between atoms: _444  and  _445
REMARK  174  A    between atoms: _444  and  _447
REMARK  175  A    between atoms: _447  and  _448
REMARK  176  A    between atoms: _448  and  _449
REMARK  177  A    between atoms: _449  and  _450
REMARK  178  A    between atoms: _459  and  _461
REMARK  179  A    between atoms: _461  and  _462
REMARK  180  A    between atoms: _465  and  _467
REMARK  181  A    between atoms: _467  and  _468
REMARK  182  A    between atoms: _470  and  _472
REMARK  183  A    between atoms: _472  and  _473
REMARK  184  A    between atoms: _472  and  _475
REMARK  185  A    between atoms: _475  and  _476
REMARK  186  A    between atoms: _486  and  _488
REMARK  187  A    between atoms: _488  and  _489
REMARK  188  A    between atoms: _488  and  _491
REMARK  189  A    between atoms: _491  and  _492
REMARK  190  A    between atoms: _493  and  _495
REMARK  191  A    between atoms: _495  and  _496
REMARK  192  A    between atoms: _499  and  _501
REMARK  193  A    between atoms: _501  and  _502
REMARK  194  A    between atoms: _501  and  _504
REMARK  195  A    between atoms: _504  and  _505
REMARK  196  A    between atoms: _508  and  _510
REMARK  197  A    between atoms: _510  and  _511
REMARK  198  A    between atoms: _510  and  _513
REMARK  199  A    between atoms: _513  and  _514
REMARK  200  A    between atoms: _519  and  _520
REMARK  201  A    between atoms: _522  and  _524
REMARK  202  A    between atoms: _524  and  _525
REMARK  203  A    between atoms: _524  and  _527
REMARK  204  A    between atoms: _527  and  _528
REMARK  205  A    between atoms: _530  and  _532
REMARK  206  A    between atoms: _532  and  _533
REMARK  207  A    between atoms: _532  and  _535
REMARK  208  A    between atoms: _535  and  _536
REMARK  209  A    between atoms: _542  and  _544
REMARK  210  A    between atoms: _544  and  _545
REMARK  211  A    between atoms: _544  and  _547
REMARK  212  A    between atoms: _547  and  _548
REMARK  213  A    between atoms: _551  and  _553
REMARK  214  A    between atoms: _553  and  _554
REMARK  215  A    between atoms: _553  and  _556
REMARK  216  A    between atoms: _556  and  _557
REMARK  217  A    between atoms: _559  and  _561
REMARK  218  A    between atoms: _561  and  _562
REMARK  219  A    between atoms: _561  and  _564
REMARK  220  A    between atoms: _564  and  _565
REMARK  221  A    between atoms: _570  and  _572
REMARK  222  A    between atoms: _572  and  _573
REMARK  223  A    between atoms: _572  and  _575
REMARK  224  A    between atoms: _575  and  _576
REMARK  225  A    between atoms: _581  and  _583
REMARK  226  A    between atoms: _583  and  _584
REMARK  227  A    between atoms: _583  and  _586
REMARK  228  A    between atoms: _586  and  _587
REMARK  229  A    between atoms: _590  and  _592
REMARK  230  A    between atoms: _592  and  _593
REMARK  231  A    between atoms: _592  and  _595
REMARK  232  A    between atoms: _595  and  _596
REMARK  233  A    between atoms: _601  and  _602
REMARK  234  A    between atoms: _604  and  _606
REMARK  235  A    between atoms: _606  and  _607
REMARK  236  A    between atoms: _606  and  _609
REMARK  237  A    between atoms: _609  and  _610
REMARK  238  A    between atoms: _615  and  _616
REMARK  239  A    between atoms: _618  and  _620
REMARK  240  A    between atoms: _620  and  _621
REMARK  241  A    between atoms: _620  and  _623
REMARK  242  A    between atoms: _626  and  _628
REMARK  243  A    between atoms: _628  and  _629
REMARK  244  A    between atoms: _628  and  _631
REMARK  245  A    between atoms: _631  and  _632
REMARK  246  A    between atoms: _637  and  _639
REMARK  247  A    between atoms: _639  and  _640
REMARK  248  A    between atoms: _643  and  _645
REMARK  249  A    between atoms: _645  and  _646
REMARK  250  A    between atoms: _645  and  _648
REMARK  251  A    between atoms: _648  and  _649
REMARK  252  A    between atoms: _649  and  _650
REMARK  253  A    between atoms: _650  and  _651
REMARK  254  A    between atoms: _660  and  _662
REMARK  255  A    between atoms: _662  and  _663
REMARK  256  A    between atoms: _662  and  _665
REMARK  257  A    between atoms: _665  and  _666
REMARK  258  A    between atoms: _669  and  _671
REMARK  259  A    between atoms: _671  and  _672
REMARK  260  A    between atoms: _671  and  _674
REMARK  261  A    between atoms: _674  and  _675
REMARK  262  A    between atoms: _678  and  _680
REMARK  263  A    between atoms: _680  and  _681
REMARK  264  A    between atoms: _680  and  _683
REMARK  265  A    between atoms: _683  and  _684
REMARK                            x       y       z     vdW  Elec       q    Type
REMARK                         _______ _______ _______ _____ _____    ______ ____
ROOT
ATOM      1  O   HOH     1      -7.439  16.697  15.056  0.00  0.00    +0.000 OA
ENDROOT
TORSDOF 0
REMARK  Name = ../refined-set-2016/1b9j/1b9j_pocket.pdb
REMARK  265 active torsions:
REMARK  status: ('A' for Active; 'I' for Inactive)
REMARK    1  A    between atoms: _1  and  _3
REMARK    2  A    between atoms: _3  and  _4
REMARK    3  A    between atoms: _3  and  _6
REMARK    4  A    between atoms: _6  and  _7
REMARK    5  A    between atoms: _12  and  _14
REMARK    6  A    between atoms: _14  and  _15
REMARK    7  A    between atoms: _17  and  _19
REMARK    8  A    between atoms: _19  and  _20
REMARK    9  A    between atoms: _19  and  _22
REMARK   10  A    between atoms: _22  and  _23
REMARK   11  A    between atoms: _25  and  _27
REMARK   12  A    between atoms: _27  and  _28
REMARK   13  A    between atoms: _27  and  _30
REMARK   14  A    between atoms: _30  and  _31
REMARK   15  A    between atoms: _31  and  _32
REMARK   16  A    between atoms: _37  and  _39
REMARK   17  A    between atoms: _39  and  _40
REMARK   18  A    between atoms: _39  and  _42
REMARK   19  A    between atoms: _42  and  _43
REMARK   20  A    between atoms: _46  and  _48
REMARK   21  A    between atoms: _48  and  _49
REMARK   22  A    between atoms: _48  and  _51
REMARK   23  A    between atoms: _51  and  _52
REMARK   24  A    between atoms: _52  and  _53
REMARK   25  A    between atoms: _56  and  _58
REMARK   26  A    between atoms: _58  and  _59
REMARK   27  A    between atoms: _61  and  _63
REMARK   28  A    between atoms: _63  and  _64
REMARK   29  A    between atoms: _63  and  _66
REMARK   30  A    between atoms: _70  and  _71
REMARK   31  A    between atoms: _76  and  _78
REMARK   32  A    between atoms: _78  and  _79
REMARK   33  A    between atoms: _78  and  _81
REMARK   34  A    between atoms: _81  and  _82
REMARK   35  A    between atoms: _82  and  _83
REMARK   36  A    between atoms: _86  and  _88
REMARK   37  A    between atoms: _88  and  _89
REMARK   38  A    between atoms: _88  and  _91
REMARK   39  A    between atoms: _91  and  _92
REMARK   40  A    between atoms: _94  and  _96
REMARK   41  A    between atoms: _96  and  _97
REMARK   42  A    between atoms: _96  and  _99
REMARK   43  A    between atoms: _99  and  _100
REMARK   44  A    between atoms: _105  and  _107
REMARK   45  A    between atoms: _107  and  _108
REMARK   46  A    between atoms: _107  and  _110
REMARK   47  A    between atoms: _110  and  _111
REMARK   48  A    between atoms: _111  and  _112
REMARK   49  A    between atoms: _112  and  _113
REMARK   50  A    between atoms: _123  and  _124
REMARK   51  A    between atoms: _129  and  _131
REMARK   52  A    between atoms: _131  and  _132
REMARK   53  A    between atoms: _131  and  _134
REMARK   54  A    between atoms: _134  and  _135
REMARK   55  A    between atoms: _140  and  _141
REMARK   56  A    between atoms: _143  and  _145
REMARK   57  A    between atoms: _145  and  _146
REMARK   58  A    between atoms: _145  and  _148
REMARK   59  A    between atoms: _148  and  _149
REMARK   60  A    between atoms: _154  and  _155
REMARK   61  A    between atoms: _157  and  _159
REMARK   62  A    between atoms: _159  and  _160
REMARK   63  A    between atoms: _159  and  _162
REMARK   64  A    between atoms: _165  and  _167
REMARK   65  A    between atoms: _167  and  _168
REMARK   66  A    between atoms: _167  and  _170
REMARK   67  A    between atoms: _170  and  _171
REMARK   68  A    between atoms: _177  and  _178
REMARK   69  A    between atoms: _183  and  _185
REMARK   70  A    between atoms: _185  and  _186
REMARK   71  A    between atoms: _185  and  _188
REMARK   72  A    between atoms: _188  and  _189
REMARK   73  A    between atoms: _191  and  _193
REMARK   74  A    between atoms: _193  and  _194
REMARK   75  A    between atoms: _193  and  _196
REMARK   76  A    between atoms: _196  and  _197
REMARK   77  A    between atoms: _197  and  _198
REMARK   78  A    between atoms: _201  and  _203
REMARK   79  A    between atoms: _203  and  _204
REMARK   80  A    between atoms: _203  and  _206
REMARK   81  A    between atoms: _206  and  _207
REMARK   82  A    between atoms: _212  and  _213
REMARK   83  A    between atoms: _215  and  _217
REMARK   84  A    between atoms: _217  and  _218
REMARK   85  A    between atoms: _217  and  _220
REMARK   86  A    between atoms: _220  and  _221
REMARK   87  A    between atoms: _226  and  _228
REMARK   88  A    between atoms: _228  and  _229
REMARK   89  A    between atoms: _228  and  _231
REMARK   90  A    between atoms: _231  and  _232
REMARK   91  A    between atoms: _237  and  _239
REMARK   92  A    between atoms: _239  and  _240
REMARK   93  A    between atoms: _239  and  _242
REMARK   94  A    between atoms: _242  and  _243
REMARK   95  A    between atoms: _243  and  _244
REMARK   96  A    between atoms: _246  and  _248
REMARK   97  A    between atoms: _248  and  _249
REMARK   98  A    between atoms: _248  and  _251
REMARK   99  A    between atoms: _251  and  _252
REMARK  100  A    between atoms: _257  and  _258
REMARK  101  A    between atoms: _260  and  _262
REMARK  102  A    between atoms: _262  and  _263
REMARK  103  A    between atoms: _262  and  _265
REMARK  104  A    between atoms: _265  and  _266
REMARK  105  A    between atoms: _269  and  _271
REMARK  106  A    between atoms: _271  and  _272
REMARK  107  A    between atoms: _271  and  _274
REMARK  108  A    between atoms: _274  and  _275
REMARK  109  A    between atoms: _275  and  _492
REMARK  110  A    between atoms: _276  and  _278
REMARK  111  A    between atoms: _278  and  _279
REMARK  112  A    between atoms: _278  and  _281
REMARK  113  A    between atoms: _281  and  _282
REMARK  114  A    between atoms: _285  and  _287
REMARK  115  A    between atoms: _287  and  _288
REMARK  116  A    between atoms: _287  and  _290
REMARK  117  A    between atoms: _290  and  _291
REMARK  118  A    between atoms: _296  and  _297
REMARK  119  A    between atoms: _299  and  _301
REMARK  120  A    between atoms: _301  and  _302
REMARK  121  A    between atoms: _301  and  _304
REMARK  122  A    between atoms: _304  and  _305
REMARK  123  A    between atoms: _310  and  _311
REMARK  124  A    between atoms: _313  and  _315
REMARK  125  A    between atoms: _315  and  _316
REMARK  126  A    between atoms: _315  and  _318
REMARK  127  A    between atoms: _318  and  _319
REMARK  128  A    between atoms: _319  and  _320
REMARK  129  A    between atoms: _323  and  _325
REMARK  130  A    between atoms: _325  and  _326
REMARK  131  A    between atoms: _325  and  _328
REMARK  132  A    between atoms: _328  and  _329
REMARK  133  A    between atoms: _334  and  _335
REMARK  134  A    between atoms: _337  and  _339
REMARK  135  A    between atoms: _339  and  _340
REMARK  136  A    between atoms: _339  and  _342
REMARK  137  A    between atoms: _342  and  _343
REMARK  138  A    between atoms: _348  and  _350
REMARK  139  A    between atoms: _350  and  _351
REMARK  140  A    between atoms: _350  and  _353
REMARK  141  A    between atoms: _353  and  _354
REMARK  142  A    between atoms: _357  and  _359
REMARK  143  A    between atoms: _359  and  _360
REMARK  144  A    between atoms: _359  and  _362
REMARK  145  A    between atoms: _362  and  _363
REMARK  146  A    between atoms: _368  and  _370
REMARK  147  A    between atoms: _370  and  _371
REMARK  148  A    between atoms: _370  and  _373
REMARK  149  A    between atoms: _373  and  _374
REMARK  150  A    between atoms: _384  and  _386
REMARK  151  A    between atoms: _386  and  _387
REMARK  152  A    between atoms: _386  and  _389
REMARK  153  A    between atoms: _389  and  _390
REMARK  154  A    between atoms: _396  and  _398
REMARK  155  A    between atoms: _398  and  _399
REMARK  156  A    between atoms: _398  and  _401
REMARK  157  A    between atoms: _401  and  _402
REMARK  158  A    between atoms: _405  and  _407
REMARK  159  A    between atoms: _407  and  _408
REMARK  160  A    between atoms: _407  and  _410
REMARK  161  A    between atoms: _410  and  _411
REMARK  162  A    between atoms: _414  and  _416
REMARK  163  A    between atoms: _416  and  _417
REMARK  164  A    between atoms: _416  and  _419
REMARK  165  A    between atoms: _419  and  _420
REMARK  166  A    between atoms: _420  and  _421
REMARK  167  A    between atoms: _421  and  _422
REMARK  168  A    between atoms: _431  and  _433
REMARK  169  A    between atoms: _433  and  _434
REMARK  170  A    between atoms: _433  and  _436
REMARK  171  A    between atoms: _436  and  _437
REMARK  172  A    between atoms: _442  and  _444
REMARK  173  A    between atoms: _444  and  _445
REMARK  174  A    between atoms: _444  and  _447
REMARK  175  A    between atoms: _447  and  _448
REMARK  176  A    between atoms: _448  and  _449
REMARK  177  A    between atoms: _449  and  _450
REMARK  178  A    between atoms: _459  and  _461
REMARK  179  A    between atoms: _461  and  _462
REMARK  180  A    between atoms: _465  and  _467
REMARK  181  A    between atoms: _467  and  _468
REMARK  182  A    between atoms: _470  and  _472
REMARK  183  A    between atoms: _472  and  _473
REMARK  184  A    between atoms: _472  and  _475
REMARK  185  A    between atoms: _475  and  _476
REMARK  186  A    between atoms: _486  and  _488
REMARK  187  A    between atoms: _488  and  _489
REMARK  188  A    between atoms: _488  and  _491
REMARK  189  A    between atoms: _491  and  _492
REMARK  190  A    between atoms: _493  and  _495
REMARK  191  A    between atoms: _495  and  _496
REMARK  192  A    between atoms: _499  and  _501
REMARK  193  A    between atoms: _501  and  _502
REMARK  194  A    between atoms: _501  and  _504
REMARK  195  A    between atoms: _504  and  _505
REMARK  196  A    between atoms: _508  and  _510
REMARK  197  A    between atoms: _510  and  _511
REMARK  198  A    between atoms: _510  and  _513
REMARK  199  A    between atoms: _513  and  _514
REMARK  200  A    between atoms: _519  and  _520
REMARK  201  A    between atoms: _522  and  _524
REMARK  202  A    between atoms: _524  and  _525
REMARK  203  A    between atoms: _524  and  _527
REMARK  204  A    between atoms: _527  and  _528
REMARK  205  A    between atoms: _530  and  _532
REMARK  206  A    between atoms: _532  and  _533
REMARK  207  A    between atoms: _532  and  _535
REMARK  208  A    between atoms: _535  and  _536
REMARK  209  A    between atoms: _542  and  _544
REMARK  210  A    between atoms: _544  and  _545
REMARK  211  A    between atoms: _544  and  _547
REMARK  212  A    between atoms: _547  and  _548
REMARK  213  A    between atoms: _551  and  _553
REMARK  214  A    between atoms: _553  and  _554
REMARK  215  A    between atoms: _553  and  _556
REMARK  216  A    between atoms: _556  and  _557
REMARK  217  A    between atoms: _559  and  _561
REMARK  218  A    between atoms: _561  and  _562
REMARK  219  A    between atoms: _561  and  _564
REMARK  220  A    between atoms: _564  and  _565
REMARK  221  A    between atoms: _570  and  _572
REMARK  222  A    between atoms: _572  and  _573
REMARK  223  A    between atoms: _572  and  _575
REMARK  224  A    between atoms: _575  and  _576
REMARK  225  A    between atoms: _581  and  _583
REMARK  226  A    between atoms: _583  and  _584
REMARK  227  A    between atoms: _583  and  _586
REMARK  228  A    between atoms: _586  and  _587
REMARK  229  A    between atoms: _590  and  _592
REMARK  230  A    between atoms: _592  and  _593
REMARK  231  A    between atoms: _592  and  _595
REMARK  232  A    between atoms: _595  and  _596
REMARK  233  A    between atoms: _601  and  _602
REMARK  234  A    between atoms: _604  and  _606
REMARK  235  A    between atoms: _606  and  _607
REMARK  236  A    between atoms: _606  and  _609
REMARK  237  A    between atoms: _609  and  _610
REMARK  238  A    between atoms: _615  and  _616
REMARK  239  A    between atoms: _618  and  _620
REMARK  240  A    between atoms: _620  and  _621
REMARK  241  A    between atoms: _620  and  _623
REMARK  242  A    between atoms: _626  and  _628
REMARK  243  A    between atoms: _628  and  _629
REMARK  244  A    between atoms: _628  and  _631
REMARK  245  A    between atoms: _631  and  _632
REMARK  246  A    between atoms: _637  and  _639
REMARK  247  A    between atoms: _639  and  _640
REMARK  248  A    between atoms: _643  and  _645
REMARK  249  A    between atoms: _645  and  _646
REMARK  250  A    between atoms: _645  and  _648
REMARK  251  A    between atoms: _648  and  _649
REMARK  252  A    between atoms: _649  and  _650
REMARK  253  A    between atoms: _650  and  _651
REMARK  254  A    between atoms: _660  and  _662
REMARK  255  A    between atoms: _662  and  _663
REMARK  256  A    between atoms: _662  and  _665
REMARK  257  A    between atoms: _665  and  _666
REMARK  258  A    between atoms: _669  and  _671
REMARK  259  A    between atoms: _671  and  _672
REMARK  260  A    between atoms: _671  and  _674
REMARK  261  A    between atoms: _674  and  _675
REMARK  262  A    between atoms: _678  and  _680
REMARK  263  A    between atoms: _680  and  _681
REMARK  264  A    between atoms: _680  and  _683
REMARK  265  A    between atoms: _683  and  _684
REMARK                            x       y       z     vdW  Elec       q    Type
REMARK                         _______ _______ _______ _____ _____    ______ ____
ROOT
ATOM      1  O   HOH     1      -6.117  14.456  13.739  0.00  0.00    +0.000 OA
ENDROOT
TORSDOF 0
REMARK  Name = ../refined-set-2016/1b9j/1b9j_pocket.pdb
REMARK  265 active torsions:
REMARK  status: ('A' for Active; 'I' for Inactive)
REMARK    1  A    between atoms: _1  and  _3
REMARK    2  A    between atoms: _3  and  _4
REMARK    3  A    between atoms: _3  and  _6
REMARK    4  A    between atoms: _6  and  _7
REMARK    5  A    between atoms: _12  and  _14
REMARK    6  A    between atoms: _14  and  _15
REMARK    7  A    between atoms: _17  and  _19
REMARK    8  A    between atoms: _19  and  _20
REMARK    9  A    between atoms: _19  and  _22
REMARK   10  A    between atoms: _22  and  _23
REMARK   11  A    between atoms: _25  and  _27
REMARK   12  A    between atoms: _27  and  _28
REMARK   13  A    between atoms: _27  and  _30
REMARK   14  A    between atoms: _30  and  _31
REMARK   15  A    between atoms: _31  and  _32
REMARK   16  A    between atoms: _37  and  _39
REMARK   17  A    between atoms: _39  and  _40
REMARK   18  A    between atoms: _39  and  _42
REMARK   19  A    between atoms: _42  and  _43
REMARK   20  A    between atoms: _46  and  _48
REMARK   21  A    between atoms: _48  and  _49
REMARK   22  A    between atoms: _48  and  _51
REMARK   23  A    between atoms: _51  and  _52
REMARK   24  A    between atoms: _52  and  _53
REMARK   25  A    between atoms: _56  and  _58
REMARK   26  A    between atoms: _58  and  _59
REMARK   27  A    between atoms: _61  and  _63
REMARK   28  A    between atoms: _63  and  _64
REMARK   29  A    between atoms: _63  and  _66
REMARK   30  A    between atoms: _70  and  _71
REMARK   31  A    between atoms: _76  and  _78
REMARK   32  A    between atoms: _78  and  _79
REMARK   33  A    between atoms: _78  and  _81
REMARK   34  A    between atoms: _81  and  _82
REMARK   35  A    between atoms: _82  and  _83
REMARK   36  A    between atoms: _86  and  _88
REMARK   37  A    between atoms: _88  and  _89
REMARK   38  A    between atoms: _88  and  _91
REMARK   39  A    between atoms: _91  and  _92
REMARK   40  A    between atoms: _94  and  _96
REMARK   41  A    between atoms: _96  and  _97
REMARK   42  A    between atoms: _96  and  _99
REMARK   43  A    between atoms: _99  and  _100
REMARK   44  A    between atoms: _105  and  _107
REMARK   45  A    between atoms: _107  and  _108
REMARK   46  A    between atoms: _107  and  _110
REMARK   47  A    between atoms: _110  and  _111
REMARK   48  A    between atoms: _111  and  _112
REMARK   49  A    between atoms: _112  and  _113
REMARK   50  A    between atoms: _123  and  _124
REMARK   51  A    between atoms: _129  and  _131
REMARK   52  A    between atoms: _131  and  _132
REMARK   53  A    between atoms: _131  and  _134
REMARK   54  A    between atoms: _134  and  _135
REMARK   55  A    between atoms: _140  and  _141
REMARK   56  A    between atoms: _143  and  _145
REMARK   57  A    between atoms: _145  and  _146
REMARK   58  A    between atoms: _145  and  _148
REMARK   59  A    between atoms: _148  and  _149
REMARK   60  A    between atoms: _154  and  _155
REMARK   61  A    between atoms: _157  and  _159
REMARK   62  A    between atoms: _159  and  _160
REMARK   63  A    between atoms: _159  and  _162
REMARK   64  A    between atoms: _165  and  _167
REMARK   65  A    between atoms: _167  and  _168
REMARK   66  A    between atoms: _167  and  _170
REMARK   67  A    between atoms: _170  and  _171
REMARK   68  A    between atoms: _177  and  _178
REMARK   69  A    between atoms: _183  and  _185
REMARK   70  A    between atoms: _185  and  _186
REMARK   71  A    between atoms: _185  and  _188
REMARK   72  A    between atoms: _188  and  _189
REMARK   73  A    between atoms: _191  and  _193
REMARK   74  A    between atoms: _193  and  _194
REMARK   75  A    between atoms: _193  and  _196
REMARK   76  A    between atoms: _196  and  _197
REMARK   77  A    between atoms: _197  and  _198
REMARK   78  A    between atoms: _201  and  _203
REMARK   79  A    between atoms: _203  and  _204
REMARK   80  A    between atoms: _203  and  _206
REMARK   81  A    between atoms: _206  and  _207
REMARK   82  A    between atoms: _212  and  _213
REMARK   83  A    between atoms: _215  and  _217
REMARK   84  A    between atoms: _217  and  _218
REMARK   85  A    between atoms: _217  and  _220
REMARK   86  A    between atoms: _220  and  _221
REMARK   87  A    between atoms: _226  and  _228
REMARK   88  A    between atoms: _228  and  _229
REMARK   89  A    between atoms: _228  and  _231
REMARK   90  A    between atoms: _231  and  _232
REMARK   91  A    between atoms: _237  and  _239
REMARK   92  A    between atoms: _239  and  _240
REMARK   93  A    between atoms: _239  and  _242
REMARK   94  A    between atoms: _242  and  _243
REMARK   95  A    between atoms: _243  and  _244
REMARK   96  A    between atoms: _246  and  _248
REMARK   97  A    between atoms: _248  and  _249
REMARK   98  A    between atoms: _248  and  _251
REMARK   99  A    between atoms: _251  and  _252
REMARK  100  A    between atoms: _257  and  _258
REMARK  101  A    between atoms: _260  and  _262
REMARK  102  A    between atoms: _262  and  _263
REMARK  103  A    between atoms: _262  and  _265
REMARK  104  A    between atoms: _265  and  _266
REMARK  105  A    between atoms: _269  and  _271
REMARK  106  A    between atoms: _271  and  _272
REMARK  107  A    between atoms: _271  and  _274
REMARK  108  A    between atoms: _274  and  _275
REMARK  109  A    between atoms: _275  and  _492
REMARK  110  A    between atoms: _276  and  _278
REMARK  111  A    between atoms: _278  and  _279
REMARK  112  A    between atoms: _278  and  _281
REMARK  113  A    between atoms: _281  and  _282
REMARK  114  A    between atoms: _285  and  _287
REMARK  115  A    between atoms: _287  and  _288
REMARK  116  A    between atoms: _287  and  _290
REMARK  117  A    between atoms: _290  and  _291
REMARK  118  A    between atoms: _296  and  _297
REMARK  119  A    between atoms: _299  and  _301
REMARK  120  A    between atoms: _301  and  _302
REMARK  121  A    between atoms: _301  and  _304
REMARK  122  A    between atoms: _304  and  _305
REMARK  123  A    between atoms: _310  and  _311
REMARK  124  A    between atoms: _313  and  _315
REMARK  125  A    between atoms: _315  and  _316
REMARK  126  A    between atoms: _315  and  _318
REMARK  127  A    between atoms: _318  and  _319
REMARK  128  A    between atoms: _319  and  _320
REMARK  129  A    between atoms: _323  and  _325
REMARK  130  A    between atoms: _325  and  _326
REMARK  131  A    between atoms: _325  and  _328
REMARK  132  A    between atoms: _328  and  _329
REMARK  133  A    between atoms: _334  and  _335
REMARK  134  A    between atoms: _337  and  _339
REMARK  135  A    between atoms: _339  and  _340
REMARK  136  A    between atoms: _339  and  _342
REMARK  137  A    between atoms: _342  and  _343
REMARK  138  A    between atoms: _348  and  _350
REMARK  139  A    between atoms: _350  and  _351
REMARK  140  A    between atoms: _350  and  _353
REMARK  141  A    between atoms: _353  and  _354
REMARK  142  A    between atoms: _357  and  _359
REMARK  143  A    between atoms: _359  and  _360
REMARK  144  A    between atoms: _359  and  _362
REMARK  145  A    between atoms: _362  and  _363
REMARK  146  A    between atoms: _368  and  _370
REMARK  147  A    between atoms: _370  and  _371
REMARK  148  A    between atoms: _370  and  _373
REMARK  149  A    between atoms: _373  and  _374
REMARK  150  A    between atoms: _384  and  _386
REMARK  151  A    between atoms: _386  and  _387
REMARK  152  A    between atoms: _386  and  _389
REMARK  153  A    between atoms: _389  and  _390
REMARK  154  A    between atoms: _396  and  _398
REMARK  155  A    between atoms: _398  and  _399
REMARK  156  A    between atoms: _398  and  _401
REMARK  157  A    between atoms: _401  and  _402
REMARK  158  A    between atoms: _405  and  _407
REMARK  159  A    between atoms: _407  and  _408
REMARK  160  A    between atoms: _407  and  _410
REMARK  161  A    between atoms: _410  and  _411
REMARK  162  A    between atoms: _414  and  _416
REMARK  163  A    between atoms: _416  and  _417
REMARK  164  A    between atoms: _416  and  _419
REMARK  165  A    between atoms: _419  and  _420
REMARK  166  A    between atoms: _420  and  _421
REMARK  167  A    between atoms: _421  and  _422
REMARK  168  A    between atoms: _431  and  _433
REMARK  169  A    between atoms: _433  and  _434
REMARK  170  A    between atoms: _433  and  _436
REMARK  171  A    between atoms: _436  and  _437
REMARK  172  A    between atoms: _442  and  _444
REMARK  173  A    between atoms: _444  and  _445
REMARK  174  A    between atoms: _444  and  _447
REMARK  175  A    between atoms: _447  and  _448
REMARK  176  A    between atoms: _448  and  _449
REMARK  177  A    between atoms: _449  and  _450
REMARK  178  A    between atoms: _459  and  _461
REMARK  179  A    between atoms: _461  and  _462
REMARK  180  A    between atoms: _465  and  _467
REMARK  181  A    between atoms: _467  and  _468
REMARK  182  A    between atoms: _470  and  _472
REMARK  183  A    between atoms: _472  and  _473
REMARK  184  A    between atoms: _472  and  _475
REMARK  185  A    between atoms: _475  and  _476
REMARK  186  A    between atoms: _486  and  _488
REMARK  187  A    between atoms: _488  and  _489
REMARK  188  A    between atoms: _488  and  _491
REMARK  189  A    between atoms: _491  and  _492
REMARK  190  A    between atoms: _493  and  _495
REMARK  191  A    between atoms: _495  and  _496
REMARK  192  A    between atoms: _499  and  _501
REMARK  193  A    between atoms: _501  and  _502
REMARK  194  A    between atoms: _501  and  _504
REMARK  195  A    between atoms: _504  and  _505
REMARK  196  A    between atoms: _508  and  _510
REMARK  197  A    between atoms: _510  and  _511
REMARK  198  A    between atoms: _510  and  _513
REMARK  199  A    between atoms: _513  and  _514
REMARK  200  A    between atoms: _519  and  _520
REMARK  201  A    between atoms: _522  and  _524
REMARK  202  A    between atoms: _524  and  _525
REMARK  203  A    between atoms: _524  and  _527
REMARK  204  A    between atoms: _527  and  _528
REMARK  205  A    between atoms: _530  and  _532
REMARK  206  A    between atoms: _532  and  _533
REMARK  207  A    between atoms: _532  and  _535
REMARK  208  A    between atoms: _535  and  _536
REMARK  209  A    between atoms: _542  and  _544
REMARK  210  A    between atoms: _544  and  _545
REMARK  211  A    between atoms: _544  and  _547
REMARK  212  A    between atoms: _547  and  _548
REMARK  213  A    between atoms: _551  and  _553
REMARK  214  A    between atoms: _553  and  _554
REMARK  215  A    between atoms: _553  and  _556
REMARK  216  A    between atoms: _556  and  _557
REMARK  217  A    between atoms: _559  and  _561
REMARK  218  A    between atoms: _561  and  _562
REMARK  219  A    between atoms: _561  and  _564
REMARK  220  A    between atoms: _564  and  _565
REMARK  221  A    between atoms: _570  and  _572
REMARK  222  A    between atoms: _572  and  _573
REMARK  223  A    between atoms: _572  and  _575
REMARK  224  A    between atoms: _575  and  _576
REMARK  225  A    between atoms: _581  and  _583
REMARK  226  A    between atoms: _583  and  _584
REMARK  227  A    between atoms: _583  and  _586
REMARK  228  A    between atoms: _586  and  _587
REMARK  229  A    between atoms: _590  and  _592
REMARK  230  A    between atoms: _592  and  _593
REMARK  231  A    between atoms: _592  and  _595
REMARK  232  A    between atoms: _595  and  _596
REMARK  233  A    between atoms: _601  and  _602
REMARK  234  A    between atoms: _604  and  _606
REMARK  235  A    between atoms: _606  and  _607
REMARK  236  A    between atoms: _606  and  _609
REMARK  237  A    between atoms: _609  and  _610
REMARK  238  A    between atoms: _615  and  _616
REMARK  239  A    between atoms: _618  and  _620
REMARK  240  A    between atoms: _620  and  _621
REMARK  241  A    between atoms: _620  and  _623
REMARK  242  A    between atoms: _626  and  _628
REMARK  243  A    between atoms: _628  and  _629
REMARK  244  A    between atoms: _628  and  _631
REMARK  245  A    between atoms: _631  and  _632
REMARK  246  A    between atoms: _637  and  _639
REMARK  247  A    between atoms: _639  and  _640
REMARK  248  A    between atoms: _643  and  _645
REMARK  249  A    between atoms: _645  and  _646
REMARK  250  A    between atoms: _645  and  _648
REMARK  251  A    between atoms: _648  and  _649
REMARK  252  A    between atoms: _649  and  _650
REMARK  253  A    between atoms: _650  and  _651
REMARK  254  A    between atoms: _660  and  _662
REMARK  255  A    between atoms: _662  and  _663
REMARK  256  A    between atoms: _662  and  _665
REMARK  257  A    between atoms: _665  and  _666
REMARK  258  A    between atoms: _669  and  _671
REMARK  259  A    between atoms: _671  and  _672
REMARK  260  A    between atoms: _671  and  _674
REMARK  261  A    between atoms: _674  and  _675
REMARK  262  A    between atoms: _678  and  _680
REMARK  263  A    between atoms: _680  and  _681
REMARK  264  A    between atoms: _680  and  _683
REMARK  265  A    between atoms: _683  and  _684
REMARK                            x       y       z     vdW  Elec       q    Type
REMARK                         _______ _______ _______ _____ _____    ______ ____
ROOT
ATOM      1  O   HOH     1      -4.879  24.421  12.970  0.00  0.00    +0.000 OA
ENDROOT
TORSDOF 0
REMARK  Name = ../refined-set-2016/1b9j/1b9j_pocket.pdb
REMARK  265 active torsions:
REMARK  status: ('A' for Active; 'I' for Inactive)
REMARK    1  A    between atoms: _1  and  _3
REMARK    2  A    between atoms: _3  and  _4
REMARK    3  A    between atoms: _3  and  _6
REMARK    4  A    between atoms: _6  and  _7
REMARK    5  A    between atoms: _12  and  _14
REMARK    6  A    between atoms: _14  and  _15
REMARK    7  A    between atoms: _17  and  _19
REMARK    8  A    between atoms: _19  and  _20
REMARK    9  A    between atoms: _19  and  _22
REMARK   10  A    between atoms: _22  and  _23
REMARK   11  A    between atoms: _25  and  _27
REMARK   12  A    between atoms: _27  and  _28
REMARK   13  A    between atoms: _27  and  _30
REMARK   14  A    between atoms: _30  and  _31
REMARK   15  A    between atoms: _31  and  _32
REMARK   16  A    between atoms: _37  and  _39
REMARK   17  A    between atoms: _39  and  _40
REMARK   18  A    between atoms: _39  and  _42
REMARK   19  A    between atoms: _42  and  _43
REMARK   20  A    between atoms: _46  and  _48
REMARK   21  A    between atoms: _48  and  _49
REMARK   22  A    between atoms: _48  and  _51
REMARK   23  A    between atoms: _51  and  _52
REMARK   24  A    between atoms: _52  and  _53
REMARK   25  A    between atoms: _56  and  _58
REMARK   26  A    between atoms: _58  and  _59
REMARK   27  A    between atoms: _61  and  _63
REMARK   28  A    between atoms: _63  and  _64
REMARK   29  A    between atoms: _63  and  _66
REMARK   30  A    between atoms: _70  and  _71
REMARK   31  A    between atoms: _76  and  _78
REMARK   32  A    between atoms: _78  and  _79
REMARK   33  A    between atoms: _78  and  _81
REMARK   34  A    between atoms: _81  and  _82
REMARK   35  A    between atoms: _82  and  _83
REMARK   36  A    between atoms: _86  and  _88
REMARK   37  A    between atoms: _88  and  _89
REMARK   38  A    between atoms: _88  and  _91
REMARK   39  A    between atoms: _91  and  _92
REMARK   40  A    between atoms: _94  and  _96
REMARK   41  A    between atoms: _96  and  _97
REMARK   42  A    between atoms: _96  and  _99
REMARK   43  A    between atoms: _99  and  _100
REMARK   44  A    between atoms: _105  and  _107
REMARK   45  A    between atoms: _107  and  _108
REMARK   46  A    between atoms: _107  and  _110
REMARK   47  A    between atoms: _110  and  _111
REMARK   48  A    between atoms: _111  and  _112
REMARK   49  A    between atoms: _112  and  _113
REMARK   50  A    between atoms: _123  and  _124
REMARK   51  A    between atoms: _129  and  _131
REMARK   52  A    between atoms: _131  and  _132
REMARK   53  A    between atoms: _131  and  _134
REMARK   54  A    between atoms: _134  and  _135
REMARK   55  A    between atoms: _140  and  _141
REMARK   56  A    between atoms: _143  and  _145
REMARK   57  A    between atoms: _145  and  _146
REMARK   58  A    between atoms: _145  and  _148
REMARK   59  A    between atoms: _148  and  _149
REMARK   60  A    between atoms: _154  and  _155
REMARK   61  A    between atoms: _157  and  _159
REMARK   62  A    between atoms: _159  and  _160
REMARK   63  A    between atoms: _159  and  _162
REMARK   64  A    between atoms: _165  and  _167
REMARK   65  A    between atoms: _167  and  _168
REMARK   66  A    between atoms: _167  and  _170
REMARK   67  A    between atoms: _170  and  _171
REMARK   68  A    between atoms: _177  and  _178
REMARK   69  A    between atoms: _183  and  _185
REMARK   70  A    between atoms: _185  and  _186
REMARK   71  A    between atoms: _185  and  _188
REMARK   72  A    between atoms: _188  and  _189
REMARK   73  A    between atoms: _191  and  _193
REMARK   74  A    between atoms: _193  and  _194
REMARK   75  A    between atoms: _193  and  _196
REMARK   76  A    between atoms: _196  and  _197
REMARK   77  A    between atoms: _197  and  _198
REMARK   78  A    between atoms: _201  and  _203
REMARK   79  A    between atoms: _203  and  _204
REMARK   80  A    between atoms: _203  and  _206
REMARK   81  A    between atoms: _206  and  _207
REMARK   82  A    between atoms: _212  and  _213
REMARK   83  A    between atoms: _215  and  _217
REMARK   84  A    between atoms: _217  and  _218
REMARK   85  A    between atoms: _217  and  _220
REMARK   86  A    between atoms: _220  and  _221
REMARK   87  A    between atoms: _226  and  _228
REMARK   88  A    between atoms: _228  and  _229
REMARK   89  A    between atoms: _228  and  _231
REMARK   90  A    between atoms: _231  and  _232
REMARK   91  A    between atoms: _237  and  _239
REMARK   92  A    between atoms: _239  and  _240
REMARK   93  A    between atoms: _239  and  _242
REMARK   94  A    between atoms: _242  and  _243
REMARK   95  A    between atoms: _243  and  _244
REMARK   96  A    between atoms: _246  and  _248
REMARK   97  A    between atoms: _248  and  _249
REMARK   98  A    between atoms: _248  and  _251
REMARK   99  A    between atoms: _251  and  _252
REMARK  100  A    between atoms: _257  and  _258
REMARK  101  A    between atoms: _260  and  _262
REMARK  102  A    between atoms: _262  and  _263
REMARK  103  A    between atoms: _262  and  _265
REMARK  104  A    between atoms: _265  and  _266
REMARK  105  A    between atoms: _269  and  _271
REMARK  106  A    between atoms: _271  and  _272
REMARK  107  A    between atoms: _271  and  _274
REMARK  108  A    between atoms: _274  and  _275
REMARK  109  A    between atoms: _275  and  _492
REMARK  110  A    between atoms: _276  and  _278
REMARK  111  A    between atoms: _278  and  _279
REMARK  112  A    between atoms: _278  and  _281
REMARK  113  A    between atoms: _281  and  _282
REMARK  114  A    between atoms: _285  and  _287
REMARK  115  A    between atoms: _287  and  _288
REMARK  116  A    between atoms: _287  and  _290
REMARK  117  A    between atoms: _290  and  _291
REMARK  118  A    between atoms: _296  and  _297
REMARK  119  A    between atoms: _299  and  _301
REMARK  120  A    between atoms: _301  and  _302
REMARK  121  A    between atoms: _301  and  _304
REMARK  122  A    between atoms: _304  and  _305
REMARK  123  A    between atoms: _310  and  _311
REMARK  124  A    between atoms: _313  and  _315
REMARK  125  A    between atoms: _315  and  _316
REMARK  126  A    between atoms: _315  and  _318
REMARK  127  A    between atoms: _318  and  _319
REMARK  128  A    between atoms: _319  and  _320
REMARK  129  A    between atoms: _323  and  _325
REMARK  130  A    between atoms: _325  and  _326
REMARK  131  A    between atoms: _325  and  _328
REMARK  132  A    between atoms: _328  and  _329
REMARK  133  A    between atoms: _334  and  _335
REMARK  134  A    between atoms: _337  and  _339
REMARK  135  A    between atoms: _339  and  _340
REMARK  136  A    between atoms: _339  and  _342
REMARK  137  A    between atoms: _342  and  _343
REMARK  138  A    between atoms: _348  and  _350
REMARK  139  A    between atoms: _350  and  _351
REMARK  140  A    between atoms: _350  and  _353
REMARK  141  A    between atoms: _353  and  _354
REMARK  142  A    between atoms: _357  and  _359
REMARK  143  A    between atoms: _359  and  _360
REMARK  144  A    between atoms: _359  and  _362
REMARK  145  A    between atoms: _362  and  _363
REMARK  146  A    between atoms: _368  and  _370
REMARK  147  A    between atoms: _370  and  _371
REMARK  148  A    between atoms: _370  and  _373
REMARK  149  A    between atoms: _373  and  _374
REMARK  150  A    between atoms: _384  and  _386
REMARK  151  A    between atoms: _386  and  _387
REMARK  152  A    between atoms: _386  and  _389
REMARK  153  A    between atoms: _389  and  _390
REMARK  154  A    between atoms: _396  and  _398
REMARK  155  A    between atoms: _398  and  _399
REMARK  156  A    between atoms: _398  and  _401
REMARK  157  A    between atoms: _401  and  _402
REMARK  158  A    between atoms: _405  and  _407
REMARK  159  A    between atoms: _407  and  _408
REMARK  160  A    between atoms: _407  and  _410
REMARK  161  A    between atoms: _410  and  _411
REMARK  162  A    between atoms: _414  and  _416
REMARK  163  A    between atoms: _416  and  _417
REMARK  164  A    between atoms: _416  and  _419
REMARK  165  A    between atoms: _419  and  _420
REMARK  166  A    between atoms: _420  and  _421
REMARK  167  A    between atoms: _421  and  _422
REMARK  168  A    between atoms: _431  and  _433
REMARK  169  A    between atoms: _433  and  _434
REMARK  170  A    between atoms: _433  and  _436
REMARK  171  A    between atoms: _436  and  _437
REMARK  172  A    between atoms: _442  and  _444
REMARK  173  A    between atoms: _444  and  _445
REMARK  174  A    between atoms: _444  and  _447
REMARK  175  A    between atoms: _447  and  _448
REMARK  176  A    between atoms: _448  and  _449
REMARK  177  A    between atoms: _449  and  _450
REMARK  178  A    between atoms: _459  and  _461
REMARK  179  A    between atoms: _461  and  _462
REMARK  180  A    between atoms: _465  and  _467
REMARK  181  A    between atoms: _467  and  _468
REMARK  182  A    between atoms: _470  and  _472
REMARK  183  A    between atoms: _472  and  _473
REMARK  184  A    between atoms: _472  and  _475
REMARK  185  A    between atoms: _475  and  _476
REMARK  186  A    between atoms: _486  and  _488
REMARK  187  A    between atoms: _488  and  _489
REMARK  188  A    between atoms: _488  and  _491
REMARK  189  A    between atoms: _491  and  _492
REMARK  190  A    between atoms: _493  and  _495
REMARK  191  A    between atoms: _495  and  _496
REMARK  192  A    between atoms: _499  and  _501
REMARK  193  A    between atoms: _501  and  _502
REMARK  194  A    between atoms: _501  and  _504
REMARK  195  A    between atoms: _504  and  _505
REMARK  196  A    between atoms: _508  and  _510
REMARK  197  A    between atoms: _510  and  _511
REMARK  198  A    between atoms: _510  and  _513
REMARK  199  A    between atoms: _513  and  _514
REMARK  200  A    between atoms: _519  and  _520
REMARK  201  A    between atoms: _522  and  _524
REMARK  202  A    between atoms: _524  and  _525
REMARK  203  A    between atoms: _524  and  _527
REMARK  204  A    between atoms: _527  and  _528
REMARK  205  A    between atoms: _530  and  _532
REMARK  206  A    between atoms: _532  and  _533
REMARK  207  A    between atoms: _532  and  _535
REMARK  208  A    between atoms: _535  and  _536
REMARK  209  A    between atoms: _542  and  _544
REMARK  210  A    between atoms: _544  and  _545
REMARK  211  A    between atoms: _544  and  _547
REMARK  212  A    between atoms: _547  and  _548
REMARK  213  A    between atoms: _551  and  _553
REMARK  214  A    between atoms: _553  and  _554
REMARK  215  A    between atoms: _553  and  _556
REMARK  216  A    between atoms: _556  and  _557
REMARK  217  A    between atoms: _559  and  _561
REMARK  218  A    between atoms: _561  and  _562
REMARK  219  A    between atoms: _561  and  _564
REMARK  220  A    between atoms: _564  and  _565
REMARK  221  A    between atoms: _570  and  _572
REMARK  222  A    between atoms: _572  and  _573
REMARK  223  A    between atoms: _572  and  _575
REMARK  224  A    between atoms: _575  and  _576
REMARK  225  A    between atoms: _581  and  _583
REMARK  226  A    between atoms: _583  and  _584
REMARK  227  A    between atoms: _583  and  _586
REMARK  228  A    between atoms: _586  and  _587
REMARK  229  A    between atoms: _590  and  _592
REMARK  230  A    between atoms: _592  and  _593
REMARK  231  A    between atoms: _592  and  _595
REMARK  232  A    between atoms: _595  and  _596
REMARK  233  A    between atoms: _601  and  _602
REMARK  234  A    between atoms: _604  and  _606
REMARK  235  A    between atoms: _606  and  _607
REMARK  236  A    between atoms: _606  and  _609
REMARK  237  A    between atoms: _609  and  _610
REMARK  238  A    between atoms: _615  and  _616
REMARK  239  A    between atoms: _618  and  _620
REMARK  240  A    between atoms: _620  and  _621
REMARK  241  A    between atoms: _620  and  _623
REMARK  242  A    between atoms: _626  and  _628
REMARK  243  A    between atoms: _628  and  _629
REMARK  244  A    between atoms: _628  and  _631
REMARK  245  A    between atoms: _631  and  _632
REMARK  246  A    between atoms: _637  and  _639
REMARK  247  A    between atoms: _639  and  _640
REMARK  248  A    between atoms: _643  and  _645
REMARK  249  A    between atoms: _645  and  _646
REMARK  250  A    between atoms: _645  and  _648
REMARK  251  A    between atoms: _648  and  _649
REMARK  252  A    between atoms: _649  and  _650
REMARK  253  A    between atoms: _650  and  _651
REMARK  254  A    between atoms: _660  and  _662
REMARK  255  A    between atoms: _662  and  _663
REMARK  256  A    between atoms: _662  and  _665
REMARK  257  A    between atoms: _665  and  _666
REMARK  258  A    between atoms: _669  and  _671
REMARK  259  A    between atoms: _671  and  _672
REMARK  260  A    between atoms: _671  and  _674
REMARK  261  A    between atoms: _674  and  _675
REMARK  262  A    between atoms: _678  and  _680
REMARK  263  A    between atoms: _680  and  _681
REMARK  264  A    between atoms: _680  and  _683
REMARK  265  A    between atoms: _683  and  _684
REMARK                            x       y       z     vdW  Elec       q    Type
REMARK                         _______ _______ _______ _____ _____    ______ ____
ROOT
ATOM      1  O   HOH     1     -10.153  16.075  14.703  0.00  0.00    +0.000 OA
ENDROOT
TORSDOF 0
REMARK  Name = ../refined-set-2016/1b9j/1b9j_pocket.pdb
REMARK  265 active torsions:
REMARK  status: ('A' for Active; 'I' for Inactive)
REMARK    1  A    between atoms: _1  and  _3
REMARK    2  A    between atoms: _3  and  _4
REMARK    3  A    between atoms: _3  and  _6
REMARK    4  A    between atoms: _6  and  _7
REMARK    5  A    between atoms: _12  and  _14
REMARK    6  A    between atoms: _14  and  _15
REMARK    7  A    between atoms: _17  and  _19
REMARK    8  A    between atoms: _19  and  _20
REMARK    9  A    between atoms: _19  and  _22
REMARK   10  A    between atoms: _22  and  _23
REMARK   11  A    between atoms: _25  and  _27
REMARK   12  A    between atoms: _27  and  _28
REMARK   13  A    between atoms: _27  and  _30
REMARK   14  A    between atoms: _30  and  _31
REMARK   15  A    between atoms: _31  and  _32
REMARK   16  A    between atoms: _37  and  _39
REMARK   17  A    between atoms: _39  and  _40
REMARK   18  A    between atoms: _39  and  _42
REMARK   19  A    between atoms: _42  and  _43
REMARK   20  A    between atoms: _46  and  _48
REMARK   21  A    between atoms: _48  and  _49
REMARK   22  A    between atoms: _48  and  _51
REMARK   23  A    between atoms: _51  and  _52
REMARK   24  A    between atoms: _52  and  _53
REMARK   25  A    between atoms: _56  and  _58
REMARK   26  A    between atoms: _58  and  _59
REMARK   27  A    between atoms: _61  and  _63
REMARK   28  A    between atoms: _63  and  _64
REMARK   29  A    between atoms: _63  and  _66
REMARK   30  A    between atoms: _70  and  _71
REMARK   31  A    between atoms: _76  and  _78
REMARK   32  A    between atoms: _78  and  _79
REMARK   33  A    between atoms: _78  and  _81
REMARK   34  A    between atoms: _81  and  _82
REMARK   35  A    between atoms: _82  and  _83
REMARK   36  A    between atoms: _86  and  _88
REMARK   37  A    between atoms: _88  and  _89
REMARK   38  A    between atoms: _88  and  _91
REMARK   39  A    between atoms: _91  and  _92
REMARK   40  A    between atoms: _94  and  _96
REMARK   41  A    between atoms: _96  and  _97
REMARK   42  A    between atoms: _96  and  _99
REMARK   43  A    between atoms: _99  and  _100
REMARK   44  A    between atoms: _105  and  _107
REMARK   45  A    between atoms: _107  and  _108
REMARK   46  A    between atoms: _107  and  _110
REMARK   47  A    between atoms: _110  and  _111
REMARK   48  A    between atoms: _111  and  _112
REMARK   49  A    between atoms: _112  and  _113
REMARK   50  A    between atoms: _123  and  _124
REMARK   51  A    between atoms: _129  and  _131
REMARK   52  A    between atoms: _131  and  _132
REMARK   53  A    between atoms: _131  and  _134
REMARK   54  A    between atoms: _134  and  _135
REMARK   55  A    between atoms: _140  and  _141
REMARK   56  A    between atoms: _143  and  _145
REMARK   57  A    between atoms: _145  and  _146
REMARK   58  A    between atoms: _145  and  _148
REMARK   59  A    between atoms: _148  and  _149
REMARK   60  A    between atoms: _154  and  _155
REMARK   61  A    between atoms: _157  and  _159
REMARK   62  A    between atoms: _159  and  _160
REMARK   63  A    between atoms: _159  and  _162
REMARK   64  A    between atoms: _165  and  _167
REMARK   65  A    between atoms: _167  and  _168
REMARK   66  A    between atoms: _167  and  _170
REMARK   67  A    between atoms: _170  and  _171
REMARK   68  A    between atoms: _177  and  _178
REMARK   69  A    between atoms: _183  and  _185
REMARK   70  A    between atoms: _185  and  _186
REMARK   71  A    between atoms: _185  and  _188
REMARK   72  A    between atoms: _188  and  _189
REMARK   73  A    between atoms: _191  and  _193
REMARK   74  A    between atoms: _193  and  _194
REMARK   75  A    between atoms: _193  and  _196
REMARK   76  A    between atoms: _196  and  _197
REMARK   77  A    between atoms: _197  and  _198
REMARK   78  A    between atoms: _201  and  _203
REMARK   79  A    between atoms: _203  and  _204
REMARK   80  A    between atoms: _203  and  _206
REMARK   81  A    between atoms: _206  and  _207
REMARK   82  A    between atoms: _212  and  _213
REMARK   83  A    between atoms: _215  and  _217
REMARK   84  A    between atoms: _217  and  _218
REMARK   85  A    between atoms: _217  and  _220
REMARK   86  A    between atoms: _220  and  _221
REMARK   87  A    between atoms: _226  and  _228
REMARK   88  A    between atoms: _228  and  _229
REMARK   89  A    between atoms: _228  and  _231
REMARK   90  A    between atoms: _231  and  _232
REMARK   91  A    between atoms: _237  and  _239
REMARK   92  A    between atoms: _239  and  _240
REMARK   93  A    between atoms: _239  and  _242
REMARK   94  A    between atoms: _242  and  _243
REMARK   95  A    between atoms: _243  and  _244
REMARK   96  A    between atoms: _246  and  _248
REMARK   97  A    between atoms: _248  and  _249
REMARK   98  A    between atoms: _248  and  _251
REMARK   99  A    between atoms: _251  and  _252
REMARK  100  A    between atoms: _257  and  _258
REMARK  101  A    between atoms: _260  and  _262
REMARK  102  A    between atoms: _262  and  _263
REMARK  103  A    between atoms: _262  and  _265
REMARK  104  A    between atoms: _265  and  _266
REMARK  105  A    between atoms: _269  and  _271
REMARK  106  A    between atoms: _271  and  _272
REMARK  107  A    between atoms: _271  and  _274
REMARK  108  A    between atoms: _274  and  _275
REMARK  109  A    between atoms: _275  and  _492
REMARK  110  A    between atoms: _276  and  _278
REMARK  111  A    between atoms: _278  and  _279
REMARK  112  A    between atoms: _278  and  _281
REMARK  113  A    between atoms: _281  and  _282
REMARK  114  A    between atoms: _285  and  _287
REMARK  115  A    between atoms: _287  and  _288
REMARK  116  A    between atoms: _287  and  _290
REMARK  117  A    between atoms: _290  and  _291
REMARK  118  A    between atoms: _296  and  _297
REMARK  119  A    between atoms: _299  and  _301
REMARK  120  A    between atoms: _301  and  _302
REMARK  121  A    between atoms: _301  and  _304
REMARK  122  A    between atoms: _304  and  _305
REMARK  123  A    between atoms: _310  and  _311
REMARK  124  A    between atoms: _313  and  _315
REMARK  125  A    between atoms: _315  and  _316
REMARK  126  A    between atoms: _315  and  _318
REMARK  127  A    between atoms: _318  and  _319
REMARK  128  A    between atoms: _319  and  _320
REMARK  129  A    between atoms: _323  and  _325
REMARK  130  A    between atoms: _325  and  _326
REMARK  131  A    between atoms: _325  and  _328
REMARK  132  A    between atoms: _328  and  _329
REMARK  133  A    between atoms: _334  and  _335
REMARK  134  A    between atoms: _337  and  _339
REMARK  135  A    between atoms: _339  and  _340
REMARK  136  A    between atoms: _339  and  _342
REMARK  137  A    between atoms: _342  and  _343
REMARK  138  A    between atoms: _348  and  _350
REMARK  139  A    between atoms: _350  and  _351
REMARK  140  A    between atoms: _350  and  _353
REMARK  141  A    between atoms: _353  and  _354
REMARK  142  A    between atoms: _357  and  _359
REMARK  143  A    between atoms: _359  and  _360
REMARK  144  A    between atoms: _359  and  _362
REMARK  145  A    between atoms: _362  and  _363
REMARK  146  A    between atoms: _368  and  _370
REMARK  147  A    between atoms: _370  and  _371
REMARK  148  A    between atoms: _370  and  _373
REMARK  149  A    between atoms: _373  and  _374
REMARK  150  A    between atoms: _384  and  _386
REMARK  151  A    between atoms: _386  and  _387
REMARK  152  A    between atoms: _386  and  _389
REMARK  153  A    between atoms: _389  and  _390
REMARK  154  A    between atoms: _396  and  _398
REMARK  155  A    between atoms: _398  and  _399
REMARK  156  A    between atoms: _398  and  _401
REMARK  157  A    between atoms: _401  and  _402
REMARK  158  A    between atoms: _405  and  _407
REMARK  159  A    between atoms: _407  and  _408
REMARK  160  A    between atoms: _407  and  _410
REMARK  161  A    between atoms: _410  and  _411
REMARK  162  A    between atoms: _414  and  _416
REMARK  163  A    between atoms: _416  and  _417
REMARK  164  A    between atoms: _416  and  _419
REMARK  165  A    between atoms: _419  and  _420
REMARK  166  A    between atoms: _420  and  _421
REMARK  167  A    between atoms: _421  and  _422
REMARK  168  A    between atoms: _431  and  _433
REMARK  169  A    between atoms: _433  and  _434
REMARK  170  A    between atoms: _433  and  _436
REMARK  171  A    between atoms: _436  and  _437
REMARK  172  A    between atoms: _442  and  _444
REMARK  173  A    between atoms: _444  and  _445
REMARK  174  A    between atoms: _444  and  _447
REMARK  175  A    between atoms: _447  and  _448
REMARK  176  A    between atoms: _448  and  _449
REMARK  177  A    between atoms: _449  and  _450
REMARK  178  A    between atoms: _459  and  _461
REMARK  179  A    between atoms: _461  and  _462
REMARK  180  A    between atoms: _465  and  _467
REMARK  181  A    between atoms: _467  and  _468
REMARK  182  A    between atoms: _470  and  _472
REMARK  183  A    between atoms: _472  and  _473
REMARK  184  A    between atoms: _472  and  _475
REMARK  185  A    between atoms: _475  and  _476
REMARK  186  A    between atoms: _486  and  _488
REMARK  187  A    between atoms: _488  and  _489
REMARK  188  A    between atoms: _488  and  _491
REMARK  189  A    between atoms: _491  and  _492
REMARK  190  A    between atoms: _493  and  _495
REMARK  191  A    between atoms: _495  and  _496
REMARK  192  A    between atoms: _499  and  _501
REMARK  193  A    between atoms: _501  and  _502
REMARK  194  A    between atoms: _501  and  _504
REMARK  195  A    between atoms: _504  and  _505
REMARK  196  A    between atoms: _508  and  _510
REMARK  197  A    between atoms: _510  and  _511
REMARK  198  A    between atoms: _510  and  _513
REMARK  199  A    between atoms: _513  and  _514
REMARK  200  A    between atoms: _519  and  _520
REMARK  201  A    between atoms: _522  and  _524
REMARK  202  A    between atoms: _524  and  _525
REMARK  203  A    between atoms: _524  and  _527
REMARK  204  A    between atoms: _527  and  _528
REMARK  205  A    between atoms: _530  and  _532
REMARK  206  A    between atoms: _532  and  _533
REMARK  207  A    between atoms: _532  and  _535
REMARK  208  A    between atoms: _535  and  _536
REMARK  209  A    between atoms: _542  and  _544
REMARK  210  A    between atoms: _544  and  _545
REMARK  211  A    between atoms: _544  and  _547
REMARK  212  A    between atoms: _547  and  _548
REMARK  213  A    between atoms: _551  and  _553
REMARK  214  A    between atoms: _553  and  _554
REMARK  215  A    between atoms: _553  and  _556
REMARK  216  A    between atoms: _556  and  _557
REMARK  217  A    between atoms: _559  and  _561
REMARK  218  A    between atoms: _561  and  _562
REMARK  219  A    between atoms: _561  and  _564
REMARK  220  A    between atoms: _564  and  _565
REMARK  221  A    between atoms: _570  and  _572
REMARK  222  A    between atoms: _572  and  _573
REMARK  223  A    between atoms: _572  and  _575
REMARK  224  A    between atoms: _575  and  _576
REMARK  225  A    between atoms: _581  and  _583
REMARK  226  A    between atoms: _583  and  _584
REMARK  227  A    between atoms: _583  and  _586
REMARK  228  A    between atoms: _586  and  _587
REMARK  229  A    between atoms: _590  and  _592
REMARK  230  A    between atoms: _592  and  _593
REMARK  231  A    between atoms: _592  and  _595
REMARK  232  A    between atoms: _595  and  _596
REMARK  233  A    between atoms: _601  and  _602
REMARK  234  A    between atoms: _604  and  _606
REMARK  235  A    between atoms: _606  and  _607
REMARK  236  A    between atoms: _606  and  _609
REMARK  237  A    between atoms: _609  and  _610
REMARK  238  A    between atoms: _615  and  _616
REMARK  239  A    between atoms: _618  and  _620
REMARK  240  A    between atoms: _620  and  _621
REMARK  241  A    between atoms: _620  and  _623
REMARK  242  A    between atoms: _626  and  _628
REMARK  243  A    between atoms: _628  and  _629
REMARK  244  A    between atoms: _628  and  _631
REMARK  245  A    between atoms: _631  and  _632
REMARK  246  A    between atoms: _637  and  _639
REMARK  247  A    between atoms: _639  and  _640
REMARK  248  A    between atoms: _643  and  _645
REMARK  249  A    between atoms: _645  and  _646
REMARK  250  A    between atoms: _645  and  _648
REMARK  251  A    between atoms: _648  and  _649
REMARK  252  A    between atoms: _649  and  _650
REMARK  253  A    between atoms: _650  and  _651
REMARK  254  A    between atoms: _660  and  _662
REMARK  255  A    between atoms: _662  and  _663
REMARK  256  A    between atoms: _662  and  _665
REMARK  257  A    between atoms: _665  and  _666
REMARK  258  A    between atoms: _669  and  _671
REMARK  259  A    between atoms: _671  and  _672
REMARK  260  A    between atoms: _671  and  _674
REMARK  261  A    between atoms: _674  and  _675
REMARK  262  A    between atoms: _678  and  _680
REMARK  263  A    between atoms: _680  and  _681
REMARK  264  A    between atoms: _680  and  _683
REMARK  265  A    between atoms: _683  and  _684
REMARK                            x       y       z     vdW  Elec       q    Type
REMARK                         _______ _______ _______ _____ _____    ______ ____
ROOT
ATOM      1  O   HOH     1       7.216  18.680  22.201  0.00  0.00    +0.000 OA
ENDROOT
TORSDOF 0
REMARK  Name = ../refined-set-2016/1b9j/1b9j_pocket.pdb
REMARK  265 active torsions:
REMARK  status: ('A' for Active; 'I' for Inactive)
REMARK    1  A    between atoms: _1  and  _3
REMARK    2  A    between atoms: _3  and  _4
REMARK    3  A    between atoms: _3  and  _6
REMARK    4  A    between atoms: _6  and  _7
REMARK    5  A    between atoms: _12  and  _14
REMARK    6  A    between atoms: _14  and  _15
REMARK    7  A    between atoms: _17  and  _19
REMARK    8  A    between atoms: _19  and  _20
REMARK    9  A    between atoms: _19  and  _22
REMARK   10  A    between atoms: _22  and  _23
REMARK   11  A    between atoms: _25  and  _27
REMARK   12  A    between atoms: _27  and  _28
REMARK   13  A    between atoms: _27  and  _30
REMARK   14  A    between atoms: _30  and  _31
REMARK   15  A    between atoms: _31  and  _32
REMARK   16  A    between atoms: _37  and  _39
REMARK   17  A    between atoms: _39  and  _40
REMARK   18  A    between atoms: _39  and  _42
REMARK   19  A    between atoms: _42  and  _43
REMARK   20  A    between atoms: _46  and  _48
REMARK   21  A    between atoms: _48  and  _49
REMARK   22  A    between atoms: _48  and  _51
REMARK   23  A    between atoms: _51  and  _52
REMARK   24  A    between atoms: _52  and  _53
REMARK   25  A    between atoms: _56  and  _58
REMARK   26  A    between atoms: _58  and  _59
REMARK   27  A    between atoms: _61  and  _63
REMARK   28  A    between atoms: _63  and  _64
REMARK   29  A    between atoms: _63  and  _66
REMARK   30  A    between atoms: _70  and  _71
REMARK   31  A    between atoms: _76  and  _78
REMARK   32  A    between atoms: _78  and  _79
REMARK   33  A    between atoms: _78  and  _81
REMARK   34  A    between atoms: _81  and  _82
REMARK   35  A    between atoms: _82  and  _83
REMARK   36  A    between atoms: _86  and  _88
REMARK   37  A    between atoms: _88  and  _89
REMARK   38  A    between atoms: _88  and  _91
REMARK   39  A    between atoms: _91  and  _92
REMARK   40  A    between atoms: _94  and  _96
REMARK   41  A    between atoms: _96  and  _97
REMARK   42  A    between atoms: _96  and  _99
REMARK   43  A    between atoms: _99  and  _100
REMARK   44  A    between atoms: _105  and  _107
REMARK   45  A    between atoms: _107  and  _108
REMARK   46  A    between atoms: _107  and  _110
REMARK   47  A    between atoms: _110  and  _111
REMARK   48  A    between atoms: _111  and  _112
REMARK   49  A    between atoms: _112  and  _113
REMARK   50  A    between atoms: _123  and  _124
REMARK   51  A    between atoms: _129  and  _131
REMARK   52  A    between atoms: _131  and  _132
REMARK   53  A    between atoms: _131  and  _134
REMARK   54  A    between atoms: _134  and  _135
REMARK   55  A    between atoms: _140  and  _141
REMARK   56  A    between atoms: _143  and  _145
REMARK   57  A    between atoms: _145  and  _146
REMARK   58  A    between atoms: _145  and  _148
REMARK   59  A    between atoms: _148  and  _149
REMARK   60  A    between atoms: _154  and  _155
REMARK   61  A    between atoms: _157  and  _159
REMARK   62  A    between atoms: _159  and  _160
REMARK   63  A    between atoms: _159  and  _162
REMARK   64  A    between atoms: _165  and  _167
REMARK   65  A    between atoms: _167  and  _168
REMARK   66  A    between atoms: _167  and  _170
REMARK   67  A    between atoms: _170  and  _171
REMARK   68  A    between atoms: _177  and  _178
REMARK   69  A    between atoms: _183  and  _185
REMARK   70  A    between atoms: _185  and  _186
REMARK   71  A    between atoms: _185  and  _188
REMARK   72  A    between atoms: _188  and  _189
REMARK   73  A    between atoms: _191  and  _193
REMARK   74  A    between atoms: _193  and  _194
REMARK   75  A    between atoms: _193  and  _196
REMARK   76  A    between atoms: _196  and  _197
REMARK   77  A    between atoms: _197  and  _198
REMARK   78  A    between atoms: _201  and  _203
REMARK   79  A    between atoms: _203  and  _204
REMARK   80  A    between atoms: _203  and  _206
REMARK   81  A    between atoms: _206  and  _207
REMARK   82  A    between atoms: _212  and  _213
REMARK   83  A    between atoms: _215  and  _217
REMARK   84  A    between atoms: _217  and  _218
REMARK   85  A    between atoms: _217  and  _220
REMARK   86  A    between atoms: _220  and  _221
REMARK   87  A    between atoms: _226  and  _228
REMARK   88  A    between atoms: _228  and  _229
REMARK   89  A    between atoms: _228  and  _231
REMARK   90  A    between atoms: _231  and  _232
REMARK   91  A    between atoms: _237  and  _239
REMARK   92  A    between atoms: _239  and  _240
REMARK   93  A    between atoms: _239  and  _242
REMARK   94  A    between atoms: _242  and  _243
REMARK   95  A    between atoms: _243  and  _244
REMARK   96  A    between atoms: _246  and  _248
REMARK   97  A    between atoms: _248  and  _249
REMARK   98  A    between atoms: _248  and  _251
REMARK   99  A    between atoms: _251  and  _252
REMARK  100  A    between atoms: _257  and  _258
REMARK  101  A    between atoms: _260  and  _262
REMARK  102  A    between atoms: _262  and  _263
REMARK  103  A    between atoms: _262  and  _265
REMARK  104  A    between atoms: _265  and  _266
REMARK  105  A    between atoms: _269  and  _271
REMARK  106  A    between atoms: _271  and  _272
REMARK  107  A    between atoms: _271  and  _274
REMARK  108  A    between atoms: _274  and  _275
REMARK  109  A    between atoms: _275  and  _492
REMARK  110  A    between atoms: _276  and  _278
REMARK  111  A    between atoms: _278  and  _279
REMARK  112  A    between atoms: _278  and  _281
REMARK  113  A    between atoms: _281  and  _282
REMARK  114  A    between atoms: _285  and  _287
REMARK  115  A    between atoms: _287  and  _288
REMARK  116  A    between atoms: _287  and  _290
REMARK  117  A    between atoms: _290  and  _291
REMARK  118  A    between atoms: _296  and  _297
REMARK  119  A    between atoms: _299  and  _301
REMARK  120  A    between atoms: _301  and  _302
REMARK  121  A    between atoms: _301  and  _304
REMARK  122  A    between atoms: _304  and  _305
REMARK  123  A    between atoms: _310  and  _311
REMARK  124  A    between atoms: _313  and  _315
REMARK  125  A    between atoms: _315  and  _316
REMARK  126  A    between atoms: _315  and  _318
REMARK  127  A    between atoms: _318  and  _319
REMARK  128  A    between atoms: _319  and  _320
REMARK  129  A    between atoms: _323  and  _325
REMARK  130  A    between atoms: _325  and  _326
REMARK  131  A    between atoms: _325  and  _328
REMARK  132  A    between atoms: _328  and  _329
REMARK  133  A    between atoms: _334  and  _335
REMARK  134  A    between atoms: _337  and  _339
REMARK  135  A    between atoms: _339  and  _340
REMARK  136  A    between atoms: _339  and  _342
REMARK  137  A    between atoms: _342  and  _343
REMARK  138  A    between atoms: _348  and  _350
REMARK  139  A    between atoms: _350  and  _351
REMARK  140  A    between atoms: _350  and  _353
REMARK  141  A    between atoms: _353  and  _354
REMARK  142  A    between atoms: _357  and  _359
REMARK  143  A    between atoms: _359  and  _360
REMARK  144  A    between atoms: _359  and  _362
REMARK  145  A    between atoms: _362  and  _363
REMARK  146  A    between atoms: _368  and  _370
REMARK  147  A    between atoms: _370  and  _371
REMARK  148  A    between atoms: _370  and  _373
REMARK  149  A    between atoms: _373  and  _374
REMARK  150  A    between atoms: _384  and  _386
REMARK  151  A    between atoms: _386  and  _387
REMARK  152  A    between atoms: _386  and  _389
REMARK  153  A    between atoms: _389  and  _390
REMARK  154  A    between atoms: _396  and  _398
REMARK  155  A    between atoms: _398  and  _399
REMARK  156  A    between atoms: _398  and  _401
REMARK  157  A    between atoms: _401  and  _402
REMARK  158  A    between atoms: _405  and  _407
REMARK  159  A    between atoms: _407  and  _408
REMARK  160  A    between atoms: _407  and  _410
REMARK  161  A    between atoms: _410  and  _411
REMARK  162  A    between atoms: _414  and  _416
REMARK  163  A    between atoms: _416  and  _417
REMARK  164  A    between atoms: _416  and  _419
REMARK  165  A    between atoms: _419  and  _420
REMARK  166  A    between atoms: _420  and  _421
REMARK  167  A    between atoms: _421  and  _422
REMARK  168  A    between atoms: _431  and  _433
REMARK  169  A    between atoms: _433  and  _434
REMARK  170  A    between atoms: _433  and  _436
REMARK  171  A    between atoms: _436  and  _437
REMARK  172  A    between atoms: _442  and  _444
REMARK  173  A    between atoms: _444  and  _445
REMARK  174  A    between atoms: _444  and  _447
REMARK  175  A    between atoms: _447  and  _448
REMARK  176  A    between atoms: _448  and  _449
REMARK  177  A    between atoms: _449  and  _450
REMARK  178  A    between atoms: _459  and  _461
REMARK  179  A    between atoms: _461  and  _462
REMARK  180  A    between atoms: _465  and  _467
REMARK  181  A    between atoms: _467  and  _468
REMARK  182  A    between atoms: _470  and  _472
REMARK  183  A    between atoms: _472  and  _473
REMARK  184  A    between atoms: _472  and  _475
REMARK  185  A    between atoms: _475  and  _476
REMARK  186  A    between atoms: _486  and  _488
REMARK  187  A    between atoms: _488  and  _489
REMARK  188  A    between atoms: _488  and  _491
REMARK  189  A    between atoms: _491  and  _492
REMARK  190  A    between atoms: _493  and  _495
REMARK  191  A    between atoms: _495  and  _496
REMARK  192  A    between atoms: _499  and  _501
REMARK  193  A    between atoms: _501  and  _502
REMARK  194  A    between atoms: _501  and  _504
REMARK  195  A    between atoms: _504  and  _505
REMARK  196  A    between atoms: _508  and  _510
REMARK  197  A    between atoms: _510  and  _511
REMARK  198  A    between atoms: _510  and  _513
REMARK  199  A    between atoms: _513  and  _514
REMARK  200  A    between atoms: _519  and  _520
REMARK  201  A    between atoms: _522  and  _524
REMARK  202  A    between atoms: _524  and  _525
REMARK  203  A    between atoms: _524  and  _527
REMARK  204  A    between atoms: _527  and  _528
REMARK  205  A    between atoms: _530  and  _532
REMARK  206  A    between atoms: _532  and  _533
REMARK  207  A    between atoms: _532  and  _535
REMARK  208  A    between atoms: _535  and  _536
REMARK  209  A    between atoms: _542  and  _544
REMARK  210  A    between atoms: _544  and  _545
REMARK  211  A    between atoms: _544  and  _547
REMARK  212  A    between atoms: _547  and  _548
REMARK  213  A    between atoms: _551  and  _553
REMARK  214  A    between atoms: _553  and  _554
REMARK  215  A    between atoms: _553  and  _556
REMARK  216  A    between atoms: _556  and  _557
REMARK  217  A    between atoms: _559  and  _561
REMARK  218  A    between atoms: _561  and  _562
REMARK  219  A    between atoms: _561  and  _564
REMARK  220  A    between atoms: _564  and  _565
REMARK  221  A    between atoms: _570  and  _572
REMARK  222  A    between atoms: _572  and  _573
REMARK  223  A    between atoms: _572  and  _575
REMARK  224  A    between atoms: _575  and  _576
REMARK  225  A    between atoms: _581  and  _583
REMARK  226  A    between atoms: _583  and  _584
REMARK  227  A    between atoms: _583  and  _586
REMARK  228  A    between atoms: _586  and  _587
REMARK  229  A    between atoms: _590  and  _592
REMARK  230  A    between atoms: _592  and  _593
REMARK  231  A    between atoms: _592  and  _595
REMARK  232  A    between atoms: _595  and  _596
REMARK  233  A    between atoms: _601  and  _602
REMARK  234  A    between atoms: _604  and  _606
REMARK  235  A    between atoms: _606  and  _607
REMARK  236  A    between atoms: _606  and  _609
REMARK  237  A    between atoms: _609  and  _610
REMARK  238  A    between atoms: _615  and  _616
REMARK  239  A    between atoms: _618  and  _620
REMARK  240  A    between atoms: _620  and  _621
REMARK  241  A    between atoms: _620  and  _623
REMARK  242  A    between atoms: _626  and  _628
REMARK  243  A    between atoms: _628  and  _629
REMARK  244  A    between atoms: _628  and  _631
REMARK  245  A    between atoms: _631  and  _632
REMARK  246  A    between atoms: _637  and  _639
REMARK  247  A    between atoms: _639  and  _640
REMARK  248  A    between atoms: _643  and  _645
REMARK  249  A    between atoms: _645  and  _646
REMARK  250  A    between atoms: _645  and  _648
REMARK  251  A    between atoms: _648  and  _649
REMARK  252  A    between atoms: _649  and  _650
REMARK  253  A    between atoms: _650  and  _651
REMARK  254  A    between atoms: _660  and  _662
REMARK  255  A    between atoms: _662  and  _663
REMARK  256  A    between atoms: _662  and  _665
REMARK  257  A    between atoms: _665  and  _666
REMARK  258  A    between atoms: _669  and  _671
REMARK  259  A    between atoms: _671  and  _672
REMARK  260  A    between atoms: _671  and  _674
REMARK  261  A    between atoms: _674  and  _675
REMARK  262  A    between atoms: _678  and  _680
REMARK  263  A    between atoms: _680  and  _681
REMARK  264  A    between atoms: _680  and  _683
REMARK  265  A    between atoms: _683  and  _684
REMARK                            x       y       z     vdW  Elec       q    Type
REMARK                         _______ _______ _______ _____ _____    ______ ____
ROOT
ATOM      1  O   HOH     1       1.524  21.523  18.995  0.00  0.00    +0.000 OA
ENDROOT
TORSDOF 0
REMARK  Name = ../refined-set-2016/1b9j/1b9j_pocket.pdb
REMARK  265 active torsions:
REMARK  status: ('A' for Active; 'I' for Inactive)
REMARK    1  A    between atoms: _1  and  _3
REMARK    2  A    between atoms: _3  and  _4
REMARK    3  A    between atoms: _3  and  _6
REMARK    4  A    between atoms: _6  and  _7
REMARK    5  A    between atoms: _12  and  _14
REMARK    6  A    between atoms: _14  and  _15
REMARK    7  A    between atoms: _17  and  _19
REMARK    8  A    between atoms: _19  and  _20
REMARK    9  A    between atoms: _19  and  _22
REMARK   10  A    between atoms: _22  and  _23
REMARK   11  A    between atoms: _25  and  _27
REMARK   12  A    between atoms: _27  and  _28
REMARK   13  A    between atoms: _27  and  _30
REMARK   14  A    between atoms: _30  and  _31
REMARK   15  A    between atoms: _31  and  _32
REMARK   16  A    between atoms: _37  and  _39
REMARK   17  A    between atoms: _39  and  _40
REMARK   18  A    between atoms: _39  and  _42
REMARK   19  A    between atoms: _42  and  _43
REMARK   20  A    between atoms: _46  and  _48
REMARK   21  A    between atoms: _48  and  _49
REMARK   22  A    between atoms: _48  and  _51
REMARK   23  A    between atoms: _51  and  _52
REMARK   24  A    between atoms: _52  and  _53
REMARK   25  A    between atoms: _56  and  _58
REMARK   26  A    between atoms: _58  and  _59
REMARK   27  A    between atoms: _61  and  _63
REMARK   28  A    between atoms: _63  and  _64
REMARK   29  A    between atoms: _63  and  _66
REMARK   30  A    between atoms: _70  and  _71
REMARK   31  A    between atoms: _76  and  _78
REMARK   32  A    between atoms: _78  and  _79
REMARK   33  A    between atoms: _78  and  _81
REMARK   34  A    between atoms: _81  and  _82
REMARK   35  A    between atoms: _82  and  _83
REMARK   36  A    between atoms: _86  and  _88
REMARK   37  A    between atoms: _88  and  _89
REMARK   38  A    between atoms: _88  and  _91
REMARK   39  A    between atoms: _91  and  _92
REMARK   40  A    between atoms: _94  and  _96
REMARK   41  A    between atoms: _96  and  _97
REMARK   42  A    between atoms: _96  and  _99
REMARK   43  A    between atoms: _99  and  _100
REMARK   44  A    between atoms: _105  and  _107
REMARK   45  A    between atoms: _107  and  _108
REMARK   46  A    between atoms: _107  and  _110
REMARK   47  A    between atoms: _110  and  _111
REMARK   48  A    between atoms: _111  and  _112
REMARK   49  A    between atoms: _112  and  _113
REMARK   50  A    between atoms: _123  and  _124
REMARK   51  A    between atoms: _129  and  _131
REMARK   52  A    between atoms: _131  and  _132
REMARK   53  A    between atoms: _131  and  _134
REMARK   54  A    between atoms: _134  and  _135
REMARK   55  A    between atoms: _140  and  _141
REMARK   56  A    between atoms: _143  and  _145
REMARK   57  A    between atoms: _145  and  _146
REMARK   58  A    between atoms: _145  and  _148
REMARK   59  A    between atoms: _148  and  _149
REMARK   60  A    between atoms: _154  and  _155
REMARK   61  A    between atoms: _157  and  _159
REMARK   62  A    between atoms: _159  and  _160
REMARK   63  A    between atoms: _159  and  _162
REMARK   64  A    between atoms: _165  and  _167
REMARK   65  A    between atoms: _167  and  _168
REMARK   66  A    between atoms: _167  and  _170
REMARK   67  A    between atoms: _170  and  _171
REMARK   68  A    between atoms: _177  and  _178
REMARK   69  A    between atoms: _183  and  _185
REMARK   70  A    between atoms: _185  and  _186
REMARK   71  A    between atoms: _185  and  _188
REMARK   72  A    between atoms: _188  and  _189
REMARK   73  A    between atoms: _191  and  _193
REMARK   74  A    between atoms: _193  and  _194
REMARK   75  A    between atoms: _193  and  _196
REMARK   76  A    between atoms: _196  and  _197
REMARK   77  A    between atoms: _197  and  _198
REMARK   78  A    between atoms: _201  and  _203
REMARK   79  A    between atoms: _203  and  _204
REMARK   80  A    between atoms: _203  and  _206
REMARK   81  A    between atoms: _206  and  _207
REMARK   82  A    between atoms: _212  and  _213
REMARK   83  A    between atoms: _215  and  _217
REMARK   84  A    between atoms: _217  and  _218
REMARK   85  A    between atoms: _217  and  _220
REMARK   86  A    between atoms: _220  and  _221
REMARK   87  A    between atoms: _226  and  _228
REMARK   88  A    between atoms: _228  and  _229
REMARK   89  A    between atoms: _228  and  _231
REMARK   90  A    between atoms: _231  and  _232
REMARK   91  A    between atoms: _237  and  _239
REMARK   92  A    between atoms: _239  and  _240
REMARK   93  A    between atoms: _239  and  _242
REMARK   94  A    between atoms: _242  and  _243
REMARK   95  A    between atoms: _243  and  _244
REMARK   96  A    between atoms: _246  and  _248
REMARK   97  A    between atoms: _248  and  _249
REMARK   98  A    between atoms: _248  and  _251
REMARK   99  A    between atoms: _251  and  _252
REMARK  100  A    between atoms: _257  and  _258
REMARK  101  A    between atoms: _260  and  _262
REMARK  102  A    between atoms: _262  and  _263
REMARK  103  A    between atoms: _262  and  _265
REMARK  104  A    between atoms: _265  and  _266
REMARK  105  A    between atoms: _269  and  _271
REMARK  106  A    between atoms: _271  and  _272
REMARK  107  A    between atoms: _271  and  _274
REMARK  108  A    between atoms: _274  and  _275
REMARK  109  A    between atoms: _275  and  _492
REMARK  110  A    between atoms: _276  and  _278
REMARK  111  A    between atoms: _278  and  _279
REMARK  112  A    between atoms: _278  and  _281
REMARK  113  A    between atoms: _281  and  _282
REMARK  114  A    between atoms: _285  and  _287
REMARK  115  A    between atoms: _287  and  _288
REMARK  116  A    between atoms: _287  and  _290
REMARK  117  A    between atoms: _290  and  _291
REMARK  118  A    between atoms: _296  and  _297
REMARK  119  A    between atoms: _299  and  _301
REMARK  120  A    between atoms: _301  and  _302
REMARK  121  A    between atoms: _301  and  _304
REMARK  122  A    between atoms: _304  and  _305
REMARK  123  A    between atoms: _310  and  _311
REMARK  124  A    between atoms: _313  and  _315
REMARK  125  A    between atoms: _315  and  _316
REMARK  126  A    between atoms: _315  and  _318
REMARK  127  A    between atoms: _318  and  _319
REMARK  128  A    between atoms: _319  and  _320
REMARK  129  A    between atoms: _323  and  _325
REMARK  130  A    between atoms: _325  and  _326
REMARK  131  A    between atoms: _325  and  _328
REMARK  132  A    between atoms: _328  and  _329
REMARK  133  A    between atoms: _334  and  _335
REMARK  134  A    between atoms: _337  and  _339
REMARK  135  A    between atoms: _339  and  _340
REMARK  136  A    between atoms: _339  and  _342
REMARK  137  A    between atoms: _342  and  _343
REMARK  138  A    between atoms: _348  and  _350
REMARK  139  A    between atoms: _350  and  _351
REMARK  140  A    between atoms: _350  and  _353
REMARK  141  A    between atoms: _353  and  _354
REMARK  142  A    between atoms: _357  and  _359
REMARK  143  A    between atoms: _359  and  _360
REMARK  144  A    between atoms: _359  and  _362
REMARK  145  A    between atoms: _362  and  _363
REMARK  146  A    between atoms: _368  and  _370
REMARK  147  A    between atoms: _370  and  _371
REMARK  148  A    between atoms: _370  and  _373
REMARK  149  A    between atoms: _373  and  _374
REMARK  150  A    between atoms: _384  and  _386
REMARK  151  A    between atoms: _386  and  _387
REMARK  152  A    between atoms: _386  and  _389
REMARK  153  A    between atoms: _389  and  _390
REMARK  154  A    between atoms: _396  and  _398
REMARK  155  A    between atoms: _398  and  _399
REMARK  156  A    between atoms: _398  and  _401
REMARK  157  A    between atoms: _401  and  _402
REMARK  158  A    between atoms: _405  and  _407
REMARK  159  A    between atoms: _407  and  _408
REMARK  160  A    between atoms: _407  and  _410
REMARK  161  A    between atoms: _410  and  _411
REMARK  162  A    between atoms: _414  and  _416
REMARK  163  A    between atoms: _416  and  _417
REMARK  164  A    between atoms: _416  and  _419
REMARK  165  A    between atoms: _419  and  _420
REMARK  166  A    between atoms: _420  and  _421
REMARK  167  A    between atoms: _421  and  _422
REMARK  168  A    between atoms: _431  and  _433
REMARK  169  A    between atoms: _433  and  _434
REMARK  170  A    between atoms: _433  and  _436
REMARK  171  A    between atoms: _436  and  _437
REMARK  172  A    between atoms: _442  and  _444
REMARK  173  A    between atoms: _444  and  _445
REMARK  174  A    between atoms: _444  and  _447
REMARK  175  A    between atoms: _447  and  _448
REMARK  176  A    between atoms: _448  and  _449
REMARK  177  A    between atoms: _449  and  _450
REMARK  178  A    between atoms: _459  and  _461
REMARK  179  A    between atoms: _461  and  _462
REMARK  180  A    between atoms: _465  and  _467
REMARK  181  A    between atoms: _467  and  _468
REMARK  182  A    between atoms: _470  and  _472
REMARK  183  A    between atoms: _472  and  _473
REMARK  184  A    between atoms: _472  and  _475
REMARK  185  A    between atoms: _475  and  _476
REMARK  186  A    between atoms: _486  and  _488
REMARK  187  A    between atoms: _488  and  _489
REMARK  188  A    between atoms: _488  and  _491
REMARK  189  A    between atoms: _491  and  _492
REMARK  190  A    between atoms: _493  and  _495
REMARK  191  A    between atoms: _495  and  _496
REMARK  192  A    between atoms: _499  and  _501
REMARK  193  A    between atoms: _501  and  _502
REMARK  194  A    between atoms: _501  and  _504
REMARK  195  A    between atoms: _504  and  _505
REMARK  196  A    between atoms: _508  and  _510
REMARK  197  A    between atoms: _510  and  _511
REMARK  198  A    between atoms: _510  and  _513
REMARK  199  A    between atoms: _513  and  _514
REMARK  200  A    between atoms: _519  and  _520
REMARK  201  A    between atoms: _522  and  _524
REMARK  202  A    between atoms: _524  and  _525
REMARK  203  A    between atoms: _524  and  _527
REMARK  204  A    between atoms: _527  and  _528
REMARK  205  A    between atoms: _530  and  _532
REMARK  206  A    between atoms: _532  and  _533
REMARK  207  A    between atoms: _532  and  _535
REMARK  208  A    between atoms: _535  and  _536
REMARK  209  A    between atoms: _542  and  _544
REMARK  210  A    between atoms: _544  and  _545
REMARK  211  A    between atoms: _544  and  _547
REMARK  212  A    between atoms: _547  and  _548
REMARK  213  A    between atoms: _551  and  _553
REMARK  214  A    between atoms: _553  and  _554
REMARK  215  A    between atoms: _553  and  _556
REMARK  216  A    between atoms: _556  and  _557
REMARK  217  A    between atoms: _559  and  _561
REMARK  218  A    between atoms: _561  and  _562
REMARK  219  A    between atoms: _561  and  _564
REMARK  220  A    between atoms: _564  and  _565
REMARK  221  A    between atoms: _570  and  _572
REMARK  222  A    between atoms: _572  and  _573
REMARK  223  A    between atoms: _572  and  _575
REMARK  224  A    between atoms: _575  and  _576
REMARK  225  A    between atoms: _581  and  _583
REMARK  226  A    between atoms: _583  and  _584
REMARK  227  A    between atoms: _583  and  _586
REMARK  228  A    between atoms: _586  and  _587
REMARK  229  A    between atoms: _590  and  _592
REMARK  230  A    between atoms: _592  and  _593
REMARK  231  A    between atoms: _592  and  _595
REMARK  232  A    between atoms: _595  and  _596
REMARK  233  A    between atoms: _601  and  _602
REMARK  234  A    between atoms: _604  and  _606
REMARK  235  A    between atoms: _606  and  _607
REMARK  236  A    between atoms: _606  and  _609
REMARK  237  A    between atoms: _609  and  _610
REMARK  238  A    between atoms: _615  and  _616
REMARK  239  A    between atoms: _618  and  _620
REMARK  240  A    between atoms: _620  and  _621
REMARK  241  A    between atoms: _620  and  _623
REMARK  242  A    between atoms: _626  and  _628
REMARK  243  A    between atoms: _628  and  _629
REMARK  244  A    between atoms: _628  and  _631
REMARK  245  A    between atoms: _631  and  _632
REMARK  246  A    between atoms: _637  and  _639
REMARK  247  A    between atoms: _639  and  _640
REMARK  248  A    between atoms: _643  and  _645
REMARK  249  A    between atoms: _645  and  _646
REMARK  250  A    between atoms: _645  and  _648
REMARK  251  A    between atoms: _648  and  _649
REMARK  252  A    between atoms: _649  and  _650
REMARK  253  A    between atoms: _650  and  _651
REMARK  254  A    between atoms: _660  and  _662
REMARK  255  A    between atoms: _662  and  _663
REMARK  256  A    between atoms: _662  and  _665
REMARK  257  A    between atoms: _665  and  _666
REMARK  258  A    between atoms: _669  and  _671
REMARK  259  A    between atoms: _671  and  _672
REMARK  260  A    between atoms: _671  and  _674
REMARK  261  A    between atoms: _674  and  _675
REMARK  262  A    between atoms: _678  and  _680
REMARK  263  A    between atoms: _680  and  _681
REMARK  264  A    between atoms: _680  and  _683
REMARK  265  A    between atoms: _683  and  _684
REMARK                            x       y       z     vdW  Elec       q    Type
REMARK                         _______ _______ _______ _____ _____    ______ ____
ROOT
ATOM      1  O   HOH     1       8.657  12.952   9.557  0.00  0.00    +0.000 OA
ENDROOT
TORSDOF 0
