REMARK  Name = ../refined-set-2016/4xu2/4xu2_pocket.pdb
REMARK  231 active torsions:
REMARK  status: ('A' for Active; 'I' for Inactive)
REMARK    1  A    between atoms: _1  and  _3
REMARK    2  A    between atoms: _3  and  _4
REMARK    3  A    between atoms: _3  and  _6
REMARK    4  A    between atoms: _6  and  _7
REMARK    5  A    between atoms: _10  and  _12
REMARK    6  A    between atoms: _12  and  _13
REMARK    7  A    between atoms: _15  and  _17
REMARK    8  A    between atoms: _17  and  _18
REMARK    9  A    between atoms: _17  and  _20
REMARK   10  A    between atoms: _20  and  _21
REMARK   11  A    between atoms: _23  and  _25
REMARK   12  A    between atoms: _25  and  _26
REMARK   13  A    between atoms: _25  and  _28
REMARK   14  A    between atoms: _28  and  _29
REMARK   15  A    between atoms: _32  and  _34
REMARK   16  A    between atoms: _34  and  _35
REMARK   17  A    between atoms: _34  and  _37
REMARK   18  A    between atoms: _37  and  _38
REMARK   19  A    between atoms: _43  and  _45
REMARK   20  A    between atoms: _45  and  _46
REMARK   21  A    between atoms: _49  and  _51
REMARK   22  A    between atoms: _51  and  _52
REMARK   23  A    between atoms: _51  and  _54
REMARK   24  A    between atoms: _54  and  _55
REMARK   25  A    between atoms: _58  and  _60
REMARK   26  A    between atoms: _60  and  _61
REMARK   27  A    between atoms: _60  and  _63
REMARK   28  A    between atoms: _63  and  _64
REMARK   29  A    between atoms: _67  and  _69
REMARK   30  A    between atoms: _69  and  _70
REMARK   31  A    between atoms: _69  and  _72
REMARK   32  A    between atoms: _72  and  _73
REMARK   33  A    between atoms: _76  and  _78
REMARK   34  A    between atoms: _78  and  _79
REMARK   35  A    between atoms: _82  and  _84
REMARK   36  A    between atoms: _84  and  _85
REMARK   37  A    between atoms: _84  and  _87
REMARK   38  A    between atoms: _87  and  _88
REMARK   39  A    between atoms: _88  and  _89
REMARK   40  A    between atoms: _94  and  _96
REMARK   41  A    between atoms: _96  and  _97
REMARK   42  A    between atoms: _96  and  _99
REMARK   43  A    between atoms: _99  and  _100
REMARK   44  A    between atoms: _103  and  _105
REMARK   45  A    between atoms: _105  and  _106
REMARK   46  A    between atoms: _109  and  _111
REMARK   47  A    between atoms: _111  and  _112
REMARK   48  A    between atoms: _114  and  _116
REMARK   49  A    between atoms: _116  and  _117
REMARK   50  A    between atoms: _116  and  _119
REMARK   51  A    between atoms: _119  and  _120
REMARK   52  A    between atoms: _120  and  _121
REMARK   53  A    between atoms: _121  and  _122
REMARK   54  A    between atoms: _131  and  _133
REMARK   55  A    between atoms: _133  and  _134
REMARK   56  A    between atoms: _136  and  _138
REMARK   57  A    between atoms: _138  and  _139
REMARK   58  A    between atoms: _138  and  _141
REMARK   59  A    between atoms: _141  and  _142
REMARK   60  A    between atoms: _142  and  _143
REMARK   61  A    between atoms: _143  and  _144
REMARK   62  A    between atoms: _153  and  _155
REMARK   63  A    between atoms: _155  and  _156
REMARK   64  A    between atoms: _155  and  _158
REMARK   65  A    between atoms: _158  and  _159
REMARK   66  A    between atoms: _164  and  _166
REMARK   67  A    between atoms: _166  and  _167
REMARK   68  A    between atoms: _169  and  _171
REMARK   69  A    between atoms: _171  and  _172
REMARK   70  A    between atoms: _171  and  _174
REMARK   71  A    between atoms: _174  and  _175
REMARK   72  A    between atoms: _175  and  _176
REMARK   73  A    between atoms: _176  and  _177
REMARK   74  A    between atoms: _186  and  _188
REMARK   75  A    between atoms: _188  and  _189
REMARK   76  A    between atoms: _191  and  _193
REMARK   77  A    between atoms: _193  and  _194
REMARK   78  A    between atoms: _193  and  _196
REMARK   79  A    between atoms: _196  and  _197
REMARK   80  A    between atoms: _207  and  _209
REMARK   81  A    between atoms: _209  and  _210
REMARK   82  A    between atoms: _213  and  _215
REMARK   83  A    between atoms: _215  and  _216
REMARK   84  A    between atoms: _219  and  _221
REMARK   85  A    between atoms: _221  and  _222
REMARK   86  A    between atoms: _221  and  _224
REMARK   87  A    between atoms: _224  and  _225
REMARK   88  A    between atoms: _228  and  _230
REMARK   89  A    between atoms: _230  and  _231
REMARK   90  A    between atoms: _230  and  _233
REMARK   91  A    between atoms: _233  and  _234
REMARK   92  A    between atoms: _234  and  _235
REMARK   93  A    between atoms: _240  and  _242
REMARK   94  A    between atoms: _242  and  _243
REMARK   95  A    between atoms: _242  and  _245
REMARK   96  A    between atoms: _245  and  _246
REMARK   97  A    between atoms: _249  and  _251
REMARK   98  A    between atoms: _251  and  _252
REMARK   99  A    between atoms: _251  and  _254
REMARK  100  A    between atoms: _254  and  _255
REMARK  101  A    between atoms: _258  and  _260
REMARK  102  A    between atoms: _260  and  _261
REMARK  103  A    between atoms: _260  and  _263
REMARK  104  A    between atoms: _263  and  _264
REMARK  105  A    between atoms: _267  and  _269
REMARK  106  A    between atoms: _269  and  _270
REMARK  107  A    between atoms: _269  and  _272
REMARK  108  A    between atoms: _272  and  _273
REMARK  109  A    between atoms: _275  and  _277
REMARK  110  A    between atoms: _277  and  _278
REMARK  111  A    between atoms: _277  and  _280
REMARK  112  A    between atoms: _283  and  _285
REMARK  113  A    between atoms: _285  and  _286
REMARK  114  A    between atoms: _285  and  _288
REMARK  115  A    between atoms: _288  and  _289
REMARK  116  A    between atoms: _289  and  _290
REMARK  117  A    between atoms: _290  and  _291
REMARK  118  A    between atoms: _291  and  _292
REMARK  119  A    between atoms: _297  and  _298
REMARK  120  A    between atoms: _303  and  _305
REMARK  121  A    between atoms: _305  and  _306
REMARK  122  A    between atoms: _305  and  _308
REMARK  123  A    between atoms: _308  and  _309
REMARK  124  A    between atoms: _314  and  _316
REMARK  125  A    between atoms: _316  and  _317
REMARK  126  A    between atoms: _316  and  _319
REMARK  127  A    between atoms: _319  and  _320
REMARK  128  A    between atoms: _323  and  _325
REMARK  129  A    between atoms: _325  and  _326
REMARK  130  A    between atoms: _325  and  _328
REMARK  131  A    between atoms: _331  and  _333
REMARK  132  A    between atoms: _333  and  _334
REMARK  133  A    between atoms: _336  and  _338
REMARK  134  A    between atoms: _338  and  _339
REMARK  135  A    between atoms: _338  and  _341
REMARK  136  A    between atoms: _341  and  _342
REMARK  137  A    between atoms: _342  and  _343
REMARK  138  A    between atoms: _343  and  _344
REMARK  139  A    between atoms: _344  and  _345
REMARK  140  A    between atoms: _349  and  _351
REMARK  141  A    between atoms: _351  and  _352
REMARK  142  A    between atoms: _351  and  _354
REMARK  143  A    between atoms: _354  and  _355
REMARK  144  A    between atoms: _358  and  _360
REMARK  145  A    between atoms: _360  and  _361
REMARK  146  A    between atoms: _364  and  _366
REMARK  147  A    between atoms: _366  and  _367
REMARK  148  A    between atoms: _369  and  _371
REMARK  149  A    between atoms: _371  and  _372
REMARK  150  A    between atoms: _371  and  _374
REMARK  151  A    between atoms: _374  and  _375
REMARK  152  A    between atoms: _378  and  _380
REMARK  153  A    between atoms: _380  and  _381
REMARK  154  A    between atoms: _380  and  _383
REMARK  155  A    between atoms: _383  and  _384
REMARK  156  A    between atoms: _387  and  _389
REMARK  157  A    between atoms: _389  and  _390
REMARK  158  A    between atoms: _393  and  _395
REMARK  159  A    between atoms: _395  and  _396
REMARK  160  A    between atoms: _395  and  _398
REMARK  161  A    between atoms: _398  and  _399
REMARK  162  A    between atoms: _399  and  _400
REMARK  163  A    between atoms: _403  and  _405
REMARK  164  A    between atoms: _405  and  _406
REMARK  165  A    between atoms: _405  and  _408
REMARK  166  A    between atoms: _411  and  _413
REMARK  167  A    between atoms: _413  and  _414
REMARK  168  A    between atoms: _413  and  _416
REMARK  169  A    between atoms: _416  and  _417
REMARK  170  A    between atoms: _420  and  _422
REMARK  171  A    between atoms: _422  and  _423
REMARK  172  A    between atoms: _425  and  _427
REMARK  173  A    between atoms: _427  and  _428
REMARK  174  A    between atoms: _427  and  _430
REMARK  175  A    between atoms: _433  and  _435
REMARK  176  A    between atoms: _435  and  _436
REMARK  177  A    between atoms: _438  and  _440
REMARK  178  A    between atoms: _440  and  _441
REMARK  179  A    between atoms: _440  and  _443
REMARK  180  A    between atoms: _443  and  _444
REMARK  181  A    between atoms: _447  and  _449
REMARK  182  A    between atoms: _449  and  _450
REMARK  183  A    between atoms: _449  and  _452
REMARK  184  A    between atoms: _452  and  _453
REMARK  185  A    between atoms: _458  and  _460
REMARK  186  A    between atoms: _460  and  _461
REMARK  187  A    between atoms: _460  and  _463
REMARK  188  A    between atoms: _466  and  _468
REMARK  189  A    between atoms: _468  and  _469
REMARK  190  A    between atoms: _468  and  _471
REMARK  191  A    between atoms: _471  and  _472
REMARK  192  A    between atoms: _472  and  _473
REMARK  193  A    between atoms: _478  and  _480
REMARK  194  A    between atoms: _480  and  _481
REMARK  195  A    between atoms: _485  and  _486
REMARK  196  A    between atoms: _491  and  _493
REMARK  197  A    between atoms: _493  and  _494
REMARK  198  A    between atoms: _493  and  _496
REMARK  199  A    between atoms: _496  and  _497
REMARK  200  A    between atoms: _497  and  _498
REMARK  201  A    between atoms: _501  and  _503
REMARK  202  A    between atoms: _503  and  _504
REMARK  203  A    between atoms: _503  and  _506
REMARK  204  A    between atoms: _509  and  _511
REMARK  205  A    between atoms: _511  and  _512
REMARK  206  A    between atoms: _511  and  _514
REMARK  207  A    between atoms: _514  and  _515
REMARK  208  A    between atoms: _519  and  _520
REMARK  209  A    between atoms: _525  and  _527
REMARK  210  A    between atoms: _527  and  _528
REMARK  211  A    between atoms: _527  and  _530
REMARK  212  A    between atoms: _530  and  _531
REMARK  213  A    between atoms: _534  and  _536
REMARK  214  A    between atoms: _536  and  _537
REMARK  215  A    between atoms: _540  and  _542
REMARK  216  A    between atoms: _542  and  _543
REMARK  217  A    between atoms: _542  and  _545
REMARK  218  A    between atoms: _545  and  _546
REMARK  219  A    between atoms: _549  and  _551
REMARK  220  A    between atoms: _551  and  _552
REMARK  221  A    between atoms: _551  and  _554
REMARK  222  A    between atoms: _554  and  _555
REMARK  223  A    between atoms: _557  and  _559
REMARK  224  A    between atoms: _559  and  _560
REMARK  225  A    between atoms: _562  and  _564
REMARK  226  A    between atoms: _564  and  _565
REMARK  227  A    between atoms: _564  and  _567
REMARK  228  A    between atoms: _567  and  _568
REMARK  229  A    between atoms: _571  and  _573
REMARK  230  A    between atoms: _573  and  _574
REMARK  231  A    between atoms: _573  and  _576
REMARK                            x       y       z     vdW  Elec       q    Type
REMARK                         _______ _______ _______ _____ _____    ______ ____
ROOT
ATOM      1  C   THR A   4       1.610 -13.564  17.583  0.00  0.00    +0.243 C 
ATOM      2  O   THR A   4       1.891 -14.738  17.824  0.00  0.00    -0.273 OA
ATOM      3  N   ASN A   5       1.489 -13.087  16.348  0.00  0.00    -0.297 N 
ATOM      4  H   ASN A   5       1.183 -12.103  16.209  0.00  0.00    +0.150 HD
ENDROOT
BRANCH   3   5
ATOM      5  CA  ASN A   5       1.777 -13.918  15.186  0.00  0.00    +0.158 C 
BRANCH   5   6
ATOM      6  C   ASN A   5       3.238 -14.342  15.159  0.00  0.00    +0.241 C 
ATOM      7  N   ALA A   6       4.133 -13.385  15.384  0.00  0.00    -0.297 N 
ATOM      8  H   ALA A   6       3.804 -12.414  15.559  0.00  0.00    +0.150 HD
ATOM      9  O   ASN A   5       3.545 -15.513  14.947  0.00  0.00    -0.273 OA
BRANCH   7  10
ATOM     10  CA  ALA A   6       5.564 -13.663  15.391  0.00  0.00    +0.149 C 
ATOM     11  CB  ALA A   6       6.353 -12.374  15.551  0.00  0.00    +0.031 C 
BRANCH  10  12
ATOM     12  C   ALA A   6       5.930 -14.650  16.494  0.00  0.00    +0.241 C 
ATOM     13  N   ASP A   7       5.260 -14.530  17.637  0.00  0.00    -0.297 N 
ATOM     14  H   ASP A   7       4.521 -13.803  17.717  0.00  0.00    +0.150 HD
ATOM     15  O   ALA A   6       6.796 -15.504  16.310  0.00  0.00    -0.273 OA
BRANCH  13  16
ATOM     16  CA  ASP A   7       5.535 -15.391  18.781  0.00  0.00    +0.160 C 
BRANCH  16  17
ATOM     17  C   ASP A   7       5.190 -16.852  18.499  0.00  0.00    +0.241 C 
ATOM     18  O   ASP A   7       5.979 -17.748  18.801  0.00  0.00    -0.273 OA
ATOM     19  N   LEU A   8       4.016 -17.093  17.924  0.00  0.00    -0.298 N 
ATOM     20  H   LEU A   8       3.384 -16.299  17.698  0.00  0.00    +0.150 HD
BRANCH  19  21
ATOM     21  CA  LEU A   8       3.600 -18.456  17.604  0.00  0.00    +0.137 C 
BRANCH  21  22
ATOM     22  C   LEU A   8       4.435 -19.038  16.466  0.00  0.00    +0.227 C 
ATOM     23  O   LEU A   8       4.704 -20.240  16.435  0.00  0.00    -0.286 OA
ENDBRANCH  21  22
BRANCH  21  24
ATOM     24  CB  LEU A   8       2.112 -18.503  17.247  0.00  0.00    +0.028 C 
BRANCH  24  25
ATOM     25  CG  LEU A   8       1.142 -18.353  18.420  0.00  0.00    +0.002 C 
ATOM     26  CD2 LEU A   8       1.578 -19.215  19.595  0.00  0.00    +0.000 C 
ATOM     27  CD1 LEU A   8      -0.280 -18.695  17.997  0.00  0.00    +0.000 C 
ENDBRANCH  24  25
ENDBRANCH  21  24
ENDBRANCH  19  21
ENDBRANCH  16  17
BRANCH  16  28
ATOM     28  CB  ASP A   7       4.769 -14.905  20.014  0.00  0.00    +0.143 C 
BRANCH  28  29
ATOM     29  CG  ASP A   7       5.267 -13.565  20.521  0.00  0.00    +0.367 C 
ATOM     30  OD2 ASP A   7       4.549 -12.926  21.319  0.00  0.00    -0.246 OA
ATOM     31  OD1 ASP A   7       6.378 -13.154  20.129  0.00  0.00    -0.246 OA
ENDBRANCH  28  29
ENDBRANCH  16  28
ENDBRANCH  13  16
ENDBRANCH  10  12
ENDBRANCH   7  10
ENDBRANCH   5   6
BRANCH   5  32
ATOM     32  CB  ASN A   5       1.423 -13.186  13.891  0.00  0.00    +0.114 C 
BRANCH  32  33
ATOM     33  CG  ASN A   5       0.095 -13.633  13.316  0.00  0.00    +0.222 C 
ATOM     34  OD1 ASN A   5      -0.814 -14.013  14.052  0.00  0.00    -0.275 OA
ATOM     35  ND2 ASN A   5      -0.019 -13.602  11.993  0.00  0.00    -0.329 N 
ATOM     36 HD21 ASN A   5      -0.904 -13.907  11.540  0.00  0.00    +0.145 HD
ATOM     37 HD22 ASN A   5       0.777 -13.273  11.410  0.00  0.00    +0.145 HD
ENDBRANCH  32  33
ENDBRANCH   5  32
ENDBRANCH   3   5
BRANCH   1  38
ATOM     38  CA  THR A   4       1.378 -12.571  18.716  0.00  0.00    +0.176 C 
BRANCH  38  40
ATOM     39  C   SER A   3       3.145 -11.010  18.110  0.00  0.00    +0.243 C 
ATOM     40  N   THR A   4       1.857 -11.241  18.351  0.00  0.00    -0.295 N 
ATOM     41  H   THR A   4       1.177 -10.457  18.278  0.00  0.00    +0.150 HD
ATOM     42  O   SER A   3       4.007 -11.885  18.182  0.00  0.00    -0.273 OA
BRANCH  39  43
ATOM     43  CA  SER A   3       3.522  -9.582  17.735  0.00  0.00    +0.178 C 
BRANCH  43  45
ATOM     44  C   GLY A   2       4.705  -7.769  18.862  0.00  0.00    +0.243 C 
ATOM     45  N   SER A   3       4.540  -9.069  18.644  0.00  0.00    -0.295 N 
ATOM     46  H   SER A   3       5.158  -9.744  19.139  0.00  0.00    +0.150 HD
ATOM     47  O   GLY A   2       4.032  -6.905  18.306  0.00  0.00    -0.273 OA
BRANCH  44  48
ATOM     48  CA  GLY A   2       5.783  -7.393  19.859  0.00  0.00    +0.176 C 
BRANCH  48  51
ATOM     49  C   THR A   1       4.545  -7.730  21.918  0.00  0.00    +0.241 C 
ATOM     50  O   THR A   1       3.759  -6.820  21.654  0.00  0.00    -0.274 OA
ATOM     51  N   GLY A   2       5.566  -8.054  21.132  0.00  0.00    -0.295 N 
ATOM     52  H   GLY A   2       6.225  -8.799  21.436  0.00  0.00    +0.150 HD
BRANCH  49  53
ATOM     53  CA  THR A   1       4.389  -8.547  23.194  0.00  0.00    +0.172 C 
BRANCH  53  54
ATOM     54  N   THR A   1       3.446  -7.902  24.099  0.00  0.00    -0.236 NA
ATOM     55  H   THR A   1       2.728  -7.259  23.708  0.00  0.00    +0.142 HD
ENDBRANCH  53  54
BRANCH  53  56
ATOM     56  CB  THR A   1       3.947  -9.977  22.830  0.00  0.00    +0.135 C 
ATOM     57  CG2 THR A   1       2.723  -9.944  21.928  0.00  0.00    +0.034 C 
BRANCH  56  58
ATOM     58  OG1 THR A   1       5.017 -10.654  22.158  0.00  0.00    -0.383 OA
ATOM     59  HG1 THR A   1       4.730 -11.573  21.925  0.00  0.00    +0.210 HD
ENDBRANCH  56  58
ENDBRANCH  53  56
ENDBRANCH  49  53
ENDBRANCH  48  51
ENDBRANCH  44  48
ENDBRANCH  43  45
BRANCH  43  60
ATOM     60  CB  SER A   3       4.016  -9.527  16.287  0.00  0.00    +0.166 C 
BRANCH  60  61
ATOM     61  OG  SER A   3       3.130 -10.213  15.417  0.00  0.00    -0.380 OA
ATOM     62  H   SER A   3       2.234  -9.794  15.462  0.00  0.00    +0.211 HD
ENDBRANCH  60  61
ENDBRANCH  43  60
ENDBRANCH  39  43
ENDBRANCH  38  40
BRANCH  38  63
ATOM     63  CB  THR A   4      -0.118 -12.564  19.079  0.00  0.00    +0.137 C 
ATOM     64  CG2 THR A   4      -0.369 -11.691  20.294  0.00  0.00    +0.034 C 
BRANCH  63  65
ATOM     65  OG1 THR A   4      -0.879 -12.065  17.973  0.00  0.00    -0.382 OA
ATOM     66  HG1 THR A   4      -0.734 -12.647  17.185  0.00  0.00    +0.210 HD
ENDBRANCH  63  65
ENDBRANCH  38  63
ENDBRANCH   1  38
TORSDOF 28
REMARK  Name = ../refined-set-2016/4xu2/4xu2_pocket.pdb
REMARK  231 active torsions:
REMARK  status: ('A' for Active; 'I' for Inactive)
REMARK    1  A    between atoms: _1  and  _3
REMARK    2  A    between atoms: _3  and  _4
REMARK    3  A    between atoms: _3  and  _6
REMARK    4  A    between atoms: _6  and  _7
REMARK    5  A    between atoms: _10  and  _12
REMARK    6  A    between atoms: _12  and  _13
REMARK    7  A    between atoms: _15  and  _17
REMARK    8  A    between atoms: _17  and  _18
REMARK    9  A    between atoms: _17  and  _20
REMARK   10  A    between atoms: _20  and  _21
REMARK   11  A    between atoms: _23  and  _25
REMARK   12  A    between atoms: _25  and  _26
REMARK   13  A    between atoms: _25  and  _28
REMARK   14  A    between atoms: _28  and  _29
REMARK   15  A    between atoms: _32  and  _34
REMARK   16  A    between atoms: _34  and  _35
REMARK   17  A    between atoms: _34  and  _37
REMARK   18  A    between atoms: _37  and  _38
REMARK   19  A    between atoms: _43  and  _45
REMARK   20  A    between atoms: _45  and  _46
REMARK   21  A    between atoms: _49  and  _51
REMARK   22  A    between atoms: _51  and  _52
REMARK   23  A    between atoms: _51  and  _54
REMARK   24  A    between atoms: _54  and  _55
REMARK   25  A    between atoms: _58  and  _60
REMARK   26  A    between atoms: _60  and  _61
REMARK   27  A    between atoms: _60  and  _63
REMARK   28  A    between atoms: _63  and  _64
REMARK   29  A    between atoms: _67  and  _69
REMARK   30  A    between atoms: _69  and  _70
REMARK   31  A    between atoms: _69  and  _72
REMARK   32  A    between atoms: _72  and  _73
REMARK   33  A    between atoms: _76  and  _78
REMARK   34  A    between atoms: _78  and  _79
REMARK   35  A    between atoms: _82  and  _84
REMARK   36  A    between atoms: _84  and  _85
REMARK   37  A    between atoms: _84  and  _87
REMARK   38  A    between atoms: _87  and  _88
REMARK   39  A    between atoms: _88  and  _89
REMARK   40  A    between atoms: _94  and  _96
REMARK   41  A    between atoms: _96  and  _97
REMARK   42  A    between atoms: _96  and  _99
REMARK   43  A    between atoms: _99  and  _100
REMARK   44  A    between atoms: _103  and  _105
REMARK   45  A    between atoms: _105  and  _106
REMARK   46  A    between atoms: _109  and  _111
REMARK   47  A    between atoms: _111  and  _112
REMARK   48  A    between atoms: _114  and  _116
REMARK   49  A    between atoms: _116  and  _117
REMARK   50  A    between atoms: _116  and  _119
REMARK   51  A    between atoms: _119  and  _120
REMARK   52  A    between atoms: _120  and  _121
REMARK   53  A    between atoms: _121  and  _122
REMARK   54  A    between atoms: _131  and  _133
REMARK   55  A    between atoms: _133  and  _134
REMARK   56  A    between atoms: _136  and  _138
REMARK   57  A    between atoms: _138  and  _139
REMARK   58  A    between atoms: _138  and  _141
REMARK   59  A    between atoms: _141  and  _142
REMARK   60  A    between atoms: _142  and  _143
REMARK   61  A    between atoms: _143  and  _144
REMARK   62  A    between atoms: _153  and  _155
REMARK   63  A    between atoms: _155  and  _156
REMARK   64  A    between atoms: _155  and  _158
REMARK   65  A    between atoms: _158  and  _159
REMARK   66  A    between atoms: _164  and  _166
REMARK   67  A    between atoms: _166  and  _167
REMARK   68  A    between atoms: _169  and  _171
REMARK   69  A    between atoms: _171  and  _172
REMARK   70  A    between atoms: _171  and  _174
REMARK   71  A    between atoms: _174  and  _175
REMARK   72  A    between atoms: _175  and  _176
REMARK   73  A    between atoms: _176  and  _177
REMARK   74  A    between atoms: _186  and  _188
REMARK   75  A    between atoms: _188  and  _189
REMARK   76  A    between atoms: _191  and  _193
REMARK   77  A    between atoms: _193  and  _194
REMARK   78  A    between atoms: _193  and  _196
REMARK   79  A    between atoms: _196  and  _197
REMARK   80  A    between atoms: _207  and  _209
REMARK   81  A    between atoms: _209  and  _210
REMARK   82  A    between atoms: _213  and  _215
REMARK   83  A    between atoms: _215  and  _216
REMARK   84  A    between atoms: _219  and  _221
REMARK   85  A    between atoms: _221  and  _222
REMARK   86  A    between atoms: _221  and  _224
REMARK   87  A    between atoms: _224  and  _225
REMARK   88  A    between atoms: _228  and  _230
REMARK   89  A    between atoms: _230  and  _231
REMARK   90  A    between atoms: _230  and  _233
REMARK   91  A    between atoms: _233  and  _234
REMARK   92  A    between atoms: _234  and  _235
REMARK   93  A    between atoms: _240  and  _242
REMARK   94  A    between atoms: _242  and  _243
REMARK   95  A    between atoms: _242  and  _245
REMARK   96  A    between atoms: _245  and  _246
REMARK   97  A    between atoms: _249  and  _251
REMARK   98  A    between atoms: _251  and  _252
REMARK   99  A    between atoms: _251  and  _254
REMARK  100  A    between atoms: _254  and  _255
REMARK  101  A    between atoms: _258  and  _260
REMARK  102  A    between atoms: _260  and  _261
REMARK  103  A    between atoms: _260  and  _263
REMARK  104  A    between atoms: _263  and  _264
REMARK  105  A    between atoms: _267  and  _269
REMARK  106  A    between atoms: _269  and  _270
REMARK  107  A    between atoms: _269  and  _272
REMARK  108  A    between atoms: _272  and  _273
REMARK  109  A    between atoms: _275  and  _277
REMARK  110  A    between atoms: _277  and  _278
REMARK  111  A    between atoms: _277  and  _280
REMARK  112  A    between atoms: _283  and  _285
REMARK  113  A    between atoms: _285  and  _286
REMARK  114  A    between atoms: _285  and  _288
REMARK  115  A    between atoms: _288  and  _289
REMARK  116  A    between atoms: _289  and  _290
REMARK  117  A    between atoms: _290  and  _291
REMARK  118  A    between atoms: _291  and  _292
REMARK  119  A    between atoms: _297  and  _298
REMARK  120  A    between atoms: _303  and  _305
REMARK  121  A    between atoms: _305  and  _306
REMARK  122  A    between atoms: _305  and  _308
REMARK  123  A    between atoms: _308  and  _309
REMARK  124  A    between atoms: _314  and  _316
REMARK  125  A    between atoms: _316  and  _317
REMARK  126  A    between atoms: _316  and  _319
REMARK  127  A    between atoms: _319  and  _320
REMARK  128  A    between atoms: _323  and  _325
REMARK  129  A    between atoms: _325  and  _326
REMARK  130  A    between atoms: _325  and  _328
REMARK  131  A    between atoms: _331  and  _333
REMARK  132  A    between atoms: _333  and  _334
REMARK  133  A    between atoms: _336  and  _338
REMARK  134  A    between atoms: _338  and  _339
REMARK  135  A    between atoms: _338  and  _341
REMARK  136  A    between atoms: _341  and  _342
REMARK  137  A    between atoms: _342  and  _343
REMARK  138  A    between atoms: _343  and  _344
REMARK  139  A    between atoms: _344  and  _345
REMARK  140  A    between atoms: _349  and  _351
REMARK  141  A    between atoms: _351  and  _352
REMARK  142  A    between atoms: _351  and  _354
REMARK  143  A    between atoms: _354  and  _355
REMARK  144  A    between atoms: _358  and  _360
REMARK  145  A    between atoms: _360  and  _361
REMARK  146  A    between atoms: _364  and  _366
REMARK  147  A    between atoms: _366  and  _367
REMARK  148  A    between atoms: _369  and  _371
REMARK  149  A    between atoms: _371  and  _372
REMARK  150  A    between atoms: _371  and  _374
REMARK  151  A    between atoms: _374  and  _375
REMARK  152  A    between atoms: _378  and  _380
REMARK  153  A    between atoms: _380  and  _381
REMARK  154  A    between atoms: _380  and  _383
REMARK  155  A    between atoms: _383  and  _384
REMARK  156  A    between atoms: _387  and  _389
REMARK  157  A    between atoms: _389  and  _390
REMARK  158  A    between atoms: _393  and  _395
REMARK  159  A    between atoms: _395  and  _396
REMARK  160  A    between atoms: _395  and  _398
REMARK  161  A    between atoms: _398  and  _399
REMARK  162  A    between atoms: _399  and  _400
REMARK  163  A    between atoms: _403  and  _405
REMARK  164  A    between atoms: _405  and  _406
REMARK  165  A    between atoms: _405  and  _408
REMARK  166  A    between atoms: _411  and  _413
REMARK  167  A    between atoms: _413  and  _414
REMARK  168  A    between atoms: _413  and  _416
REMARK  169  A    between atoms: _416  and  _417
REMARK  170  A    between atoms: _420  and  _422
REMARK  171  A    between atoms: _422  and  _423
REMARK  172  A    between atoms: _425  and  _427
REMARK  173  A    between atoms: _427  and  _428
REMARK  174  A    between atoms: _427  and  _430
REMARK  175  A    between atoms: _433  and  _435
REMARK  176  A    between atoms: _435  and  _436
REMARK  177  A    between atoms: _438  and  _440
REMARK  178  A    between atoms: _440  and  _441
REMARK  179  A    between atoms: _440  and  _443
REMARK  180  A    between atoms: _443  and  _444
REMARK  181  A    between atoms: _447  and  _449
REMARK  182  A    between atoms: _449  and  _450
REMARK  183  A    between atoms: _449  and  _452
REMARK  184  A    between atoms: _452  and  _453
REMARK  185  A    between atoms: _458  and  _460
REMARK  186  A    between atoms: _460  and  _461
REMARK  187  A    between atoms: _460  and  _463
REMARK  188  A    between atoms: _466  and  _468
REMARK  189  A    between atoms: _468  and  _469
REMARK  190  A    between atoms: _468  and  _471
REMARK  191  A    between atoms: _471  and  _472
REMARK  192  A    between atoms: _472  and  _473
REMARK  193  A    between atoms: _478  and  _480
REMARK  194  A    between atoms: _480  and  _481
REMARK  195  A    between atoms: _485  and  _486
REMARK  196  A    between atoms: _491  and  _493
REMARK  197  A    between atoms: _493  and  _494
REMARK  198  A    between atoms: _493  and  _496
REMARK  199  A    between atoms: _496  and  _497
REMARK  200  A    between atoms: _497  and  _498
REMARK  201  A    between atoms: _501  and  _503
REMARK  202  A    between atoms: _503  and  _504
REMARK  203  A    between atoms: _503  and  _506
REMARK  204  A    between atoms: _509  and  _511
REMARK  205  A    between atoms: _511  and  _512
REMARK  206  A    between atoms: _511  and  _514
REMARK  207  A    between atoms: _514  and  _515
REMARK  208  A    between atoms: _519  and  _520
REMARK  209  A    between atoms: _525  and  _527
REMARK  210  A    between atoms: _527  and  _528
REMARK  211  A    between atoms: _527  and  _530
REMARK  212  A    between atoms: _530  and  _531
REMARK  213  A    between atoms: _534  and  _536
REMARK  214  A    between atoms: _536  and  _537
REMARK  215  A    between atoms: _540  and  _542
REMARK  216  A    between atoms: _542  and  _543
REMARK  217  A    between atoms: _542  and  _545
REMARK  218  A    between atoms: _545  and  _546
REMARK  219  A    between atoms: _549  and  _551
REMARK  220  A    between atoms: _551  and  _552
REMARK  221  A    between atoms: _551  and  _554
REMARK  222  A    between atoms: _554  and  _555
REMARK  223  A    between atoms: _557  and  _559
REMARK  224  A    between atoms: _559  and  _560
REMARK  225  A    between atoms: _562  and  _564
REMARK  226  A    between atoms: _564  and  _565
REMARK  227  A    between atoms: _564  and  _567
REMARK  228  A    between atoms: _567  and  _568
REMARK  229  A    between atoms: _571  and  _573
REMARK  230  A    between atoms: _573  and  _574
REMARK  231  A    between atoms: _573  and  _576
REMARK                            x       y       z     vdW  Elec       q    Type
REMARK                         _______ _______ _______ _____ _____    ______ ____
ROOT
ATOM      1  CA  LEU A   1      -2.073 -16.701  22.401  0.00  0.00    +0.133 C 
ENDROOT
BRANCH   1   2
ATOM      2  N   LEU A   1      -2.852 -17.731  21.722  0.00  0.00    -0.239 NA
ATOM      3  H   LEU A   1      -3.127 -17.587  20.729  0.00  0.00    +0.142 HD
ENDBRANCH   1   2
BRANCH   1   4
ATOM      4  C   LEU A   1      -2.778 -15.353  22.317  0.00  0.00    +0.224 C 
ATOM      5  O   LEU A   1      -3.030 -14.845  21.227  0.00  0.00    -0.287 OA
ENDBRANCH   1   4
BRANCH   1   6
ATOM      6  CB  LEU A   1      -0.670 -16.597  21.801  0.00  0.00    +0.025 C 
BRANCH   6   7
ATOM      7  CG  LEU A   1       0.219 -15.475  22.345  0.00  0.00    +0.002 C 
ATOM      8  CD2 LEU A   1       0.458 -15.638  23.840  0.00  0.00    +0.000 C 
ATOM      9  CD1 LEU A   1       1.538 -15.423  21.593  0.00  0.00    +0.000 C 
ENDBRANCH   6   7
ENDBRANCH   1   6
TORSDOF 4
REMARK  Name = ../refined-set-2016/4xu2/4xu2_pocket.pdb
REMARK  231 active torsions:
REMARK  status: ('A' for Active; 'I' for Inactive)
REMARK    1  A    between atoms: _1  and  _3
REMARK    2  A    between atoms: _3  and  _4
REMARK    3  A    between atoms: _3  and  _6
REMARK    4  A    between atoms: _6  and  _7
REMARK    5  A    between atoms: _10  and  _12
REMARK    6  A    between atoms: _12  and  _13
REMARK    7  A    between atoms: _15  and  _17
REMARK    8  A    between atoms: _17  and  _18
REMARK    9  A    between atoms: _17  and  _20
REMARK   10  A    between atoms: _20  and  _21
REMARK   11  A    between atoms: _23  and  _25
REMARK   12  A    between atoms: _25  and  _26
REMARK   13  A    between atoms: _25  and  _28
REMARK   14  A    between atoms: _28  and  _29
REMARK   15  A    between atoms: _32  and  _34
REMARK   16  A    between atoms: _34  and  _35
REMARK   17  A    between atoms: _34  and  _37
REMARK   18  A    between atoms: _37  and  _38
REMARK   19  A    between atoms: _43  and  _45
REMARK   20  A    between atoms: _45  and  _46
REMARK   21  A    between atoms: _49  and  _51
REMARK   22  A    between atoms: _51  and  _52
REMARK   23  A    between atoms: _51  and  _54
REMARK   24  A    between atoms: _54  and  _55
REMARK   25  A    between atoms: _58  and  _60
REMARK   26  A    between atoms: _60  and  _61
REMARK   27  A    between atoms: _60  and  _63
REMARK   28  A    between atoms: _63  and  _64
REMARK   29  A    between atoms: _67  and  _69
REMARK   30  A    between atoms: _69  and  _70
REMARK   31  A    between atoms: _69  and  _72
REMARK   32  A    between atoms: _72  and  _73
REMARK   33  A    between atoms: _76  and  _78
REMARK   34  A    between atoms: _78  and  _79
REMARK   35  A    between atoms: _82  and  _84
REMARK   36  A    between atoms: _84  and  _85
REMARK   37  A    between atoms: _84  and  _87
REMARK   38  A    between atoms: _87  and  _88
REMARK   39  A    between atoms: _88  and  _89
REMARK   40  A    between atoms: _94  and  _96
REMARK   41  A    between atoms: _96  and  _97
REMARK   42  A    between atoms: _96  and  _99
REMARK   43  A    between atoms: _99  and  _100
REMARK   44  A    between atoms: _103  and  _105
REMARK   45  A    between atoms: _105  and  _106
REMARK   46  A    between atoms: _109  and  _111
REMARK   47  A    between atoms: _111  and  _112
REMARK   48  A    between atoms: _114  and  _116
REMARK   49  A    between atoms: _116  and  _117
REMARK   50  A    between atoms: _116  and  _119
REMARK   51  A    between atoms: _119  and  _120
REMARK   52  A    between atoms: _120  and  _121
REMARK   53  A    between atoms: _121  and  _122
REMARK   54  A    between atoms: _131  and  _133
REMARK   55  A    between atoms: _133  and  _134
REMARK   56  A    between atoms: _136  and  _138
REMARK   57  A    between atoms: _138  and  _139
REMARK   58  A    between atoms: _138  and  _141
REMARK   59  A    between atoms: _141  and  _142
REMARK   60  A    between atoms: _142  and  _143
REMARK   61  A    between atoms: _143  and  _144
REMARK   62  A    between atoms: _153  and  _155
REMARK   63  A    between atoms: _155  and  _156
REMARK   64  A    between atoms: _155  and  _158
REMARK   65  A    between atoms: _158  and  _159
REMARK   66  A    between atoms: _164  and  _166
REMARK   67  A    between atoms: _166  and  _167
REMARK   68  A    between atoms: _169  and  _171
REMARK   69  A    between atoms: _171  and  _172
REMARK   70  A    between atoms: _171  and  _174
REMARK   71  A    between atoms: _174  and  _175
REMARK   72  A    between atoms: _175  and  _176
REMARK   73  A    between atoms: _176  and  _177
REMARK   74  A    between atoms: _186  and  _188
REMARK   75  A    between atoms: _188  and  _189
REMARK   76  A    between atoms: _191  and  _193
REMARK   77  A    between atoms: _193  and  _194
REMARK   78  A    between atoms: _193  and  _196
REMARK   79  A    between atoms: _196  and  _197
REMARK   80  A    between atoms: _207  and  _209
REMARK   81  A    between atoms: _209  and  _210
REMARK   82  A    between atoms: _213  and  _215
REMARK   83  A    between atoms: _215  and  _216
REMARK   84  A    between atoms: _219  and  _221
REMARK   85  A    between atoms: _221  and  _222
REMARK   86  A    between atoms: _221  and  _224
REMARK   87  A    between atoms: _224  and  _225
REMARK   88  A    between atoms: _228  and  _230
REMARK   89  A    between atoms: _230  and  _231
REMARK   90  A    between atoms: _230  and  _233
REMARK   91  A    between atoms: _233  and  _234
REMARK   92  A    between atoms: _234  and  _235
REMARK   93  A    between atoms: _240  and  _242
REMARK   94  A    between atoms: _242  and  _243
REMARK   95  A    between atoms: _242  and  _245
REMARK   96  A    between atoms: _245  and  _246
REMARK   97  A    between atoms: _249  and  _251
REMARK   98  A    between atoms: _251  and  _252
REMARK   99  A    between atoms: _251  and  _254
REMARK  100  A    between atoms: _254  and  _255
REMARK  101  A    between atoms: _258  and  _260
REMARK  102  A    between atoms: _260  and  _261
REMARK  103  A    between atoms: _260  and  _263
REMARK  104  A    between atoms: _263  and  _264
REMARK  105  A    between atoms: _267  and  _269
REMARK  106  A    between atoms: _269  and  _270
REMARK  107  A    between atoms: _269  and  _272
REMARK  108  A    between atoms: _272  and  _273
REMARK  109  A    between atoms: _275  and  _277
REMARK  110  A    between atoms: _277  and  _278
REMARK  111  A    between atoms: _277  and  _280
REMARK  112  A    between atoms: _283  and  _285
REMARK  113  A    between atoms: _285  and  _286
REMARK  114  A    between atoms: _285  and  _288
REMARK  115  A    between atoms: _288  and  _289
REMARK  116  A    between atoms: _289  and  _290
REMARK  117  A    between atoms: _290  and  _291
REMARK  118  A    between atoms: _291  and  _292
REMARK  119  A    between atoms: _297  and  _298
REMARK  120  A    between atoms: _303  and  _305
REMARK  121  A    between atoms: _305  and  _306
REMARK  122  A    between atoms: _305  and  _308
REMARK  123  A    between atoms: _308  and  _309
REMARK  124  A    between atoms: _314  and  _316
REMARK  125  A    between atoms: _316  and  _317
REMARK  126  A    between atoms: _316  and  _319
REMARK  127  A    between atoms: _319  and  _320
REMARK  128  A    between atoms: _323  and  _325
REMARK  129  A    between atoms: _325  and  _326
REMARK  130  A    between atoms: _325  and  _328
REMARK  131  A    between atoms: _331  and  _333
REMARK  132  A    between atoms: _333  and  _334
REMARK  133  A    between atoms: _336  and  _338
REMARK  134  A    between atoms: _338  and  _339
REMARK  135  A    between atoms: _338  and  _341
REMARK  136  A    between atoms: _341  and  _342
REMARK  137  A    between atoms: _342  and  _343
REMARK  138  A    between atoms: _343  and  _344
REMARK  139  A    between atoms: _344  and  _345
REMARK  140  A    between atoms: _349  and  _351
REMARK  141  A    between atoms: _351  and  _352
REMARK  142  A    between atoms: _351  and  _354
REMARK  143  A    between atoms: _354  and  _355
REMARK  144  A    between atoms: _358  and  _360
REMARK  145  A    between atoms: _360  and  _361
REMARK  146  A    between atoms: _364  and  _366
REMARK  147  A    between atoms: _366  and  _367
REMARK  148  A    between atoms: _369  and  _371
REMARK  149  A    between atoms: _371  and  _372
REMARK  150  A    between atoms: _371  and  _374
REMARK  151  A    between atoms: _374  and  _375
REMARK  152  A    between atoms: _378  and  _380
REMARK  153  A    between atoms: _380  and  _381
REMARK  154  A    between atoms: _380  and  _383
REMARK  155  A    between atoms: _383  and  _384
REMARK  156  A    between atoms: _387  and  _389
REMARK  157  A    between atoms: _389  and  _390
REMARK  158  A    between atoms: _393  and  _395
REMARK  159  A    between atoms: _395  and  _396
REMARK  160  A    between atoms: _395  and  _398
REMARK  161  A    between atoms: _398  and  _399
REMARK  162  A    between atoms: _399  and  _400
REMARK  163  A    between atoms: _403  and  _405
REMARK  164  A    between atoms: _405  and  _406
REMARK  165  A    between atoms: _405  and  _408
REMARK  166  A    between atoms: _411  and  _413
REMARK  167  A    between atoms: _413  and  _414
REMARK  168  A    between atoms: _413  and  _416
REMARK  169  A    between atoms: _416  and  _417
REMARK  170  A    between atoms: _420  and  _422
REMARK  171  A    between atoms: _422  and  _423
REMARK  172  A    between atoms: _425  and  _427
REMARK  173  A    between atoms: _427  and  _428
REMARK  174  A    between atoms: _427  and  _430
REMARK  175  A    between atoms: _433  and  _435
REMARK  176  A    between atoms: _435  and  _436
REMARK  177  A    between atoms: _438  and  _440
REMARK  178  A    between atoms: _440  and  _441
REMARK  179  A    between atoms: _440  and  _443
REMARK  180  A    between atoms: _443  and  _444
REMARK  181  A    between atoms: _447  and  _449
REMARK  182  A    between atoms: _449  and  _450
REMARK  183  A    between atoms: _449  and  _452
REMARK  184  A    between atoms: _452  and  _453
REMARK  185  A    between atoms: _458  and  _460
REMARK  186  A    between atoms: _460  and  _461
REMARK  187  A    between atoms: _460  and  _463
REMARK  188  A    between atoms: _466  and  _468
REMARK  189  A    between atoms: _468  and  _469
REMARK  190  A    between atoms: _468  and  _471
REMARK  191  A    between atoms: _471  and  _472
REMARK  192  A    between atoms: _472  and  _473
REMARK  193  A    between atoms: _478  and  _480
REMARK  194  A    between atoms: _480  and  _481
REMARK  195  A    between atoms: _485  and  _486
REMARK  196  A    between atoms: _491  and  _493
REMARK  197  A    between atoms: _493  and  _494
REMARK  198  A    between atoms: _493  and  _496
REMARK  199  A    between atoms: _496  and  _497
REMARK  200  A    between atoms: _497  and  _498
REMARK  201  A    between atoms: _501  and  _503
REMARK  202  A    between atoms: _503  and  _504
REMARK  203  A    between atoms: _503  and  _506
REMARK  204  A    between atoms: _509  and  _511
REMARK  205  A    between atoms: _511  and  _512
REMARK  206  A    between atoms: _511  and  _514
REMARK  207  A    between atoms: _514  and  _515
REMARK  208  A    between atoms: _519  and  _520
REMARK  209  A    between atoms: _525  and  _527
REMARK  210  A    between atoms: _527  and  _528
REMARK  211  A    between atoms: _527  and  _530
REMARK  212  A    between atoms: _530  and  _531
REMARK  213  A    between atoms: _534  and  _536
REMARK  214  A    between atoms: _536  and  _537
REMARK  215  A    between atoms: _540  and  _542
REMARK  216  A    between atoms: _542  and  _543
REMARK  217  A    between atoms: _542  and  _545
REMARK  218  A    between atoms: _545  and  _546
REMARK  219  A    between atoms: _549  and  _551
REMARK  220  A    between atoms: _551  and  _552
REMARK  221  A    between atoms: _551  and  _554
REMARK  222  A    between atoms: _554  and  _555
REMARK  223  A    between atoms: _557  and  _559
REMARK  224  A    between atoms: _559  and  _560
REMARK  225  A    between atoms: _562  and  _564
REMARK  226  A    between atoms: _564  and  _565
REMARK  227  A    between atoms: _564  and  _567
REMARK  228  A    between atoms: _567  and  _568
REMARK  229  A    between atoms: _571  and  _573
REMARK  230  A    between atoms: _573  and  _574
REMARK  231  A    between atoms: _573  and  _576
REMARK                            x       y       z     vdW  Elec       q    Type
REMARK                         _______ _______ _______ _____ _____    ______ ____
ROOT
ATOM      1  CA  ALA A   1      -2.031 -10.174  24.229  0.00  0.00    +0.133 C 
ATOM      2  CB  ALA A   1      -0.913  -9.751  23.287  0.00  0.00    +0.027 C 
ENDROOT
BRANCH   1   3
ATOM      3  N   ALA A   1      -2.815 -11.253  23.640  0.00  0.00    -0.239 NA
ATOM      4  H   ALA A   1      -3.327 -11.084  22.751  0.00  0.00    +0.142 HD
ENDBRANCH   1   3
BRANCH   1   5
ATOM      5  C   ALA A   1      -2.909  -8.978  24.576  0.00  0.00    +0.224 C 
ATOM      6  O   ALA A   1      -3.729  -8.544  23.767  0.00  0.00    -0.287 OA
ENDBRANCH   1   5
TORSDOF 2
REMARK  Name = ../refined-set-2016/4xu2/4xu2_pocket.pdb
REMARK  231 active torsions:
REMARK  status: ('A' for Active; 'I' for Inactive)
REMARK    1  A    between atoms: _1  and  _3
REMARK    2  A    between atoms: _3  and  _4
REMARK    3  A    between atoms: _3  and  _6
REMARK    4  A    between atoms: _6  and  _7
REMARK    5  A    between atoms: _10  and  _12
REMARK    6  A    between atoms: _12  and  _13
REMARK    7  A    between atoms: _15  and  _17
REMARK    8  A    between atoms: _17  and  _18
REMARK    9  A    between atoms: _17  and  _20
REMARK   10  A    between atoms: _20  and  _21
REMARK   11  A    between atoms: _23  and  _25
REMARK   12  A    between atoms: _25  and  _26
REMARK   13  A    between atoms: _25  and  _28
REMARK   14  A    between atoms: _28  and  _29
REMARK   15  A    between atoms: _32  and  _34
REMARK   16  A    between atoms: _34  and  _35
REMARK   17  A    between atoms: _34  and  _37
REMARK   18  A    between atoms: _37  and  _38
REMARK   19  A    between atoms: _43  and  _45
REMARK   20  A    between atoms: _45  and  _46
REMARK   21  A    between atoms: _49  and  _51
REMARK   22  A    between atoms: _51  and  _52
REMARK   23  A    between atoms: _51  and  _54
REMARK   24  A    between atoms: _54  and  _55
REMARK   25  A    between atoms: _58  and  _60
REMARK   26  A    between atoms: _60  and  _61
REMARK   27  A    between atoms: _60  and  _63
REMARK   28  A    between atoms: _63  and  _64
REMARK   29  A    between atoms: _67  and  _69
REMARK   30  A    between atoms: _69  and  _70
REMARK   31  A    between atoms: _69  and  _72
REMARK   32  A    between atoms: _72  and  _73
REMARK   33  A    between atoms: _76  and  _78
REMARK   34  A    between atoms: _78  and  _79
REMARK   35  A    between atoms: _82  and  _84
REMARK   36  A    between atoms: _84  and  _85
REMARK   37  A    between atoms: _84  and  _87
REMARK   38  A    between atoms: _87  and  _88
REMARK   39  A    between atoms: _88  and  _89
REMARK   40  A    between atoms: _94  and  _96
REMARK   41  A    between atoms: _96  and  _97
REMARK   42  A    between atoms: _96  and  _99
REMARK   43  A    between atoms: _99  and  _100
REMARK   44  A    between atoms: _103  and  _105
REMARK   45  A    between atoms: _105  and  _106
REMARK   46  A    between atoms: _109  and  _111
REMARK   47  A    between atoms: _111  and  _112
REMARK   48  A    between atoms: _114  and  _116
REMARK   49  A    between atoms: _116  and  _117
REMARK   50  A    between atoms: _116  and  _119
REMARK   51  A    between atoms: _119  and  _120
REMARK   52  A    between atoms: _120  and  _121
REMARK   53  A    between atoms: _121  and  _122
REMARK   54  A    between atoms: _131  and  _133
REMARK   55  A    between atoms: _133  and  _134
REMARK   56  A    between atoms: _136  and  _138
REMARK   57  A    between atoms: _138  and  _139
REMARK   58  A    between atoms: _138  and  _141
REMARK   59  A    between atoms: _141  and  _142
REMARK   60  A    between atoms: _142  and  _143
REMARK   61  A    between atoms: _143  and  _144
REMARK   62  A    between atoms: _153  and  _155
REMARK   63  A    between atoms: _155  and  _156
REMARK   64  A    between atoms: _155  and  _158
REMARK   65  A    between atoms: _158  and  _159
REMARK   66  A    between atoms: _164  and  _166
REMARK   67  A    between atoms: _166  and  _167
REMARK   68  A    between atoms: _169  and  _171
REMARK   69  A    between atoms: _171  and  _172
REMARK   70  A    between atoms: _171  and  _174
REMARK   71  A    between atoms: _174  and  _175
REMARK   72  A    between atoms: _175  and  _176
REMARK   73  A    between atoms: _176  and  _177
REMARK   74  A    between atoms: _186  and  _188
REMARK   75  A    between atoms: _188  and  _189
REMARK   76  A    between atoms: _191  and  _193
REMARK   77  A    between atoms: _193  and  _194
REMARK   78  A    between atoms: _193  and  _196
REMARK   79  A    between atoms: _196  and  _197
REMARK   80  A    between atoms: _207  and  _209
REMARK   81  A    between atoms: _209  and  _210
REMARK   82  A    between atoms: _213  and  _215
REMARK   83  A    between atoms: _215  and  _216
REMARK   84  A    between atoms: _219  and  _221
REMARK   85  A    between atoms: _221  and  _222
REMARK   86  A    between atoms: _221  and  _224
REMARK   87  A    between atoms: _224  and  _225
REMARK   88  A    between atoms: _228  and  _230
REMARK   89  A    between atoms: _230  and  _231
REMARK   90  A    between atoms: _230  and  _233
REMARK   91  A    between atoms: _233  and  _234
REMARK   92  A    between atoms: _234  and  _235
REMARK   93  A    between atoms: _240  and  _242
REMARK   94  A    between atoms: _242  and  _243
REMARK   95  A    between atoms: _242  and  _245
REMARK   96  A    between atoms: _245  and  _246
REMARK   97  A    between atoms: _249  and  _251
REMARK   98  A    between atoms: _251  and  _252
REMARK   99  A    between atoms: _251  and  _254
REMARK  100  A    between atoms: _254  and  _255
REMARK  101  A    between atoms: _258  and  _260
REMARK  102  A    between atoms: _260  and  _261
REMARK  103  A    between atoms: _260  and  _263
REMARK  104  A    between atoms: _263  and  _264
REMARK  105  A    between atoms: _267  and  _269
REMARK  106  A    between atoms: _269  and  _270
REMARK  107  A    between atoms: _269  and  _272
REMARK  108  A    between atoms: _272  and  _273
REMARK  109  A    between atoms: _275  and  _277
REMARK  110  A    between atoms: _277  and  _278
REMARK  111  A    between atoms: _277  and  _280
REMARK  112  A    between atoms: _283  and  _285
REMARK  113  A    between atoms: _285  and  _286
REMARK  114  A    between atoms: _285  and  _288
REMARK  115  A    between atoms: _288  and  _289
REMARK  116  A    between atoms: _289  and  _290
REMARK  117  A    between atoms: _290  and  _291
REMARK  118  A    between atoms: _291  and  _292
REMARK  119  A    between atoms: _297  and  _298
REMARK  120  A    between atoms: _303  and  _305
REMARK  121  A    between atoms: _305  and  _306
REMARK  122  A    between atoms: _305  and  _308
REMARK  123  A    between atoms: _308  and  _309
REMARK  124  A    between atoms: _314  and  _316
REMARK  125  A    between atoms: _316  and  _317
REMARK  126  A    between atoms: _316  and  _319
REMARK  127  A    between atoms: _319  and  _320
REMARK  128  A    between atoms: _323  and  _325
REMARK  129  A    between atoms: _325  and  _326
REMARK  130  A    between atoms: _325  and  _328
REMARK  131  A    between atoms: _331  and  _333
REMARK  132  A    between atoms: _333  and  _334
REMARK  133  A    between atoms: _336  and  _338
REMARK  134  A    between atoms: _338  and  _339
REMARK  135  A    between atoms: _338  and  _341
REMARK  136  A    between atoms: _341  and  _342
REMARK  137  A    between atoms: _342  and  _343
REMARK  138  A    between atoms: _343  and  _344
REMARK  139  A    between atoms: _344  and  _345
REMARK  140  A    between atoms: _349  and  _351
REMARK  141  A    between atoms: _351  and  _352
REMARK  142  A    between atoms: _351  and  _354
REMARK  143  A    between atoms: _354  and  _355
REMARK  144  A    between atoms: _358  and  _360
REMARK  145  A    between atoms: _360  and  _361
REMARK  146  A    between atoms: _364  and  _366
REMARK  147  A    between atoms: _366  and  _367
REMARK  148  A    between atoms: _369  and  _371
REMARK  149  A    between atoms: _371  and  _372
REMARK  150  A    between atoms: _371  and  _374
REMARK  151  A    between atoms: _374  and  _375
REMARK  152  A    between atoms: _378  and  _380
REMARK  153  A    between atoms: _380  and  _381
REMARK  154  A    between atoms: _380  and  _383
REMARK  155  A    between atoms: _383  and  _384
REMARK  156  A    between atoms: _387  and  _389
REMARK  157  A    between atoms: _389  and  _390
REMARK  158  A    between atoms: _393  and  _395
REMARK  159  A    between atoms: _395  and  _396
REMARK  160  A    between atoms: _395  and  _398
REMARK  161  A    between atoms: _398  and  _399
REMARK  162  A    between atoms: _399  and  _400
REMARK  163  A    between atoms: _403  and  _405
REMARK  164  A    between atoms: _405  and  _406
REMARK  165  A    between atoms: _405  and  _408
REMARK  166  A    between atoms: _411  and  _413
REMARK  167  A    between atoms: _413  and  _414
REMARK  168  A    between atoms: _413  and  _416
REMARK  169  A    between atoms: _416  and  _417
REMARK  170  A    between atoms: _420  and  _422
REMARK  171  A    between atoms: _422  and  _423
REMARK  172  A    between atoms: _425  and  _427
REMARK  173  A    between atoms: _427  and  _428
REMARK  174  A    between atoms: _427  and  _430
REMARK  175  A    between atoms: _433  and  _435
REMARK  176  A    between atoms: _435  and  _436
REMARK  177  A    between atoms: _438  and  _440
REMARK  178  A    between atoms: _440  and  _441
REMARK  179  A    between atoms: _440  and  _443
REMARK  180  A    between atoms: _443  and  _444
REMARK  181  A    between atoms: _447  and  _449
REMARK  182  A    between atoms: _449  and  _450
REMARK  183  A    between atoms: _449  and  _452
REMARK  184  A    between atoms: _452  and  _453
REMARK  185  A    between atoms: _458  and  _460
REMARK  186  A    between atoms: _460  and  _461
REMARK  187  A    between atoms: _460  and  _463
REMARK  188  A    between atoms: _466  and  _468
REMARK  189  A    between atoms: _468  and  _469
REMARK  190  A    between atoms: _468  and  _471
REMARK  191  A    between atoms: _471  and  _472
REMARK  192  A    between atoms: _472  and  _473
REMARK  193  A    between atoms: _478  and  _480
REMARK  194  A    between atoms: _480  and  _481
REMARK  195  A    between atoms: _485  and  _486
REMARK  196  A    between atoms: _491  and  _493
REMARK  197  A    between atoms: _493  and  _494
REMARK  198  A    between atoms: _493  and  _496
REMARK  199  A    between atoms: _496  and  _497
REMARK  200  A    between atoms: _497  and  _498
REMARK  201  A    between atoms: _501  and  _503
REMARK  202  A    between atoms: _503  and  _504
REMARK  203  A    between atoms: _503  and  _506
REMARK  204  A    between atoms: _509  and  _511
REMARK  205  A    between atoms: _511  and  _512
REMARK  206  A    between atoms: _511  and  _514
REMARK  207  A    between atoms: _514  and  _515
REMARK  208  A    between atoms: _519  and  _520
REMARK  209  A    between atoms: _525  and  _527
REMARK  210  A    between atoms: _527  and  _528
REMARK  211  A    between atoms: _527  and  _530
REMARK  212  A    between atoms: _530  and  _531
REMARK  213  A    between atoms: _534  and  _536
REMARK  214  A    between atoms: _536  and  _537
REMARK  215  A    between atoms: _540  and  _542
REMARK  216  A    between atoms: _542  and  _543
REMARK  217  A    between atoms: _542  and  _545
REMARK  218  A    between atoms: _545  and  _546
REMARK  219  A    between atoms: _549  and  _551
REMARK  220  A    between atoms: _551  and  _552
REMARK  221  A    between atoms: _551  and  _554
REMARK  222  A    between atoms: _554  and  _555
REMARK  223  A    between atoms: _557  and  _559
REMARK  224  A    between atoms: _559  and  _560
REMARK  225  A    between atoms: _562  and  _564
REMARK  226  A    between atoms: _564  and  _565
REMARK  227  A    between atoms: _564  and  _567
REMARK  228  A    between atoms: _567  and  _568
REMARK  229  A    between atoms: _571  and  _573
REMARK  230  A    between atoms: _573  and  _574
REMARK  231  A    between atoms: _573  and  _576
REMARK                            x       y       z     vdW  Elec       q    Type
REMARK                         _______ _______ _______ _____ _____    ______ ____
ROOT
ATOM      1  C   ARG A   7       0.360  -6.857   4.486  0.00  0.00    +0.241 C 
ATOM      2  O   ARG A   7       0.381  -5.630   4.562  0.00  0.00    -0.273 OA
ATOM      3  N   HIS A   8       1.144  -7.558   3.671  0.00  0.00    -0.297 N 
ATOM      4  H   HIS A   8       1.107  -8.596   3.723  0.00  0.00    +0.150 HD
ENDROOT
BRANCH   3   5
ATOM      5  CA  HIS A   8       2.055  -6.946   2.706  0.00  0.00    +0.155 C 
BRANCH   5   6
ATOM      6  C   HIS A   8       3.061  -5.992   3.351  0.00  0.00    +0.241 C 
ATOM      7  N   GLY A   9       3.617  -6.404   4.485  0.00  0.00    -0.295 N 
ATOM      8  H   GLY A   9       3.293  -7.295   4.912  0.00  0.00    +0.150 HD
ATOM      9  O   HIS A   8       3.327  -4.908   2.830  0.00  0.00    -0.273 OA
BRANCH   7  10
ATOM     10  CA  GLY A   9       4.664  -5.644   5.144  0.00  0.00    +0.176 C 
BRANCH  10  11
ATOM     11  C   GLY A   9       4.173  -4.427   5.901  0.00  0.00    +0.243 C 
ATOM     12  O   GLY A   9       4.974  -3.655   6.428  0.00  0.00    -0.273 OA
ATOM     13  N   ARG A  10       2.857  -4.250   5.958  0.00  0.00    -0.297 N 
ATOM     14  H   ARG A  10       2.230  -4.923   5.473  0.00  0.00    +0.150 HD
BRANCH  13  15
ATOM     15  CA  ARG A  10       2.276  -3.130   6.688  0.00  0.00    +0.149 C 
BRANCH  15  16
ATOM     16  C   ARG A  10       2.206  -3.439   8.180  0.00  0.00    +0.241 C 
ATOM     17  N   GLY A  11       1.701  -2.488   8.959  0.00  0.00    -0.295 N 
ATOM     18  H   GLY A  11       1.328  -1.618   8.528  0.00  0.00    +0.150 HD
ATOM     19  O   ARG A  10       2.603  -4.518   8.617  0.00  0.00    -0.273 OA
BRANCH  17  20
ATOM     20  CA  GLY A  11       1.661  -2.644  10.401  0.00  0.00    +0.176 C 
BRANCH  20  21
ATOM     21  C   GLY A  11       0.263  -2.699  10.984  0.00  0.00    +0.243 C 
ATOM     22  N   TRP A  12       0.196  -2.893  12.297  0.00  0.00    -0.297 N 
ATOM     23  H   TRP A  12       1.078  -3.040  12.828  0.00  0.00    +0.150 HD
ATOM     24  O   GLY A  11      -0.731  -2.576  10.269  0.00  0.00    -0.273 OA
BRANCH  22  25
ATOM     25  CA  TRP A  12      -1.069  -2.907  13.019  0.00  0.00    +0.153 C 
BRANCH  25  26
ATOM     26  C   TRP A  12      -0.894  -2.203  14.358  0.00  0.00    +0.241 C 
ATOM     27  O   TRP A  12      -0.064  -2.603  15.176  0.00  0.00    -0.273 OA
ATOM     28  N   ALA A  13      -1.670  -1.146  14.574  0.00  0.00    -0.297 N 
ATOM     29  H   ALA A  13      -2.388  -0.892  13.866  0.00  0.00    +0.150 HD
BRANCH  28  30
ATOM     30  CA  ALA A  13      -1.542  -0.334  15.777  0.00  0.00    +0.149 C 
ATOM     31  CB  ALA A  13      -1.722   1.137  15.441  0.00  0.00    +0.031 C 
BRANCH  30  32
ATOM     32  C   ALA A  13      -2.541  -0.759  16.847  0.00  0.00    +0.241 C 
ATOM     33  N   ALA A  14      -2.175  -0.539  18.106  0.00  0.00    -0.297 N 
ATOM     34  H   ALA A  14      -1.257  -0.089  18.296  0.00  0.00    +0.150 HD
ATOM     35  O   ALA A  13      -3.618  -1.270  16.537  0.00  0.00    -0.273 OA
BRANCH  33  36
ATOM     36  CA  ALA A  14      -3.028  -0.912  19.227  0.00  0.00    +0.149 C 
ATOM     37  CB  ALA A  14      -2.993  -2.421  19.437  0.00  0.00    +0.031 C 
BRANCH  36  38
ATOM     38  C   ALA A  14      -2.622  -0.198  20.511  0.00  0.00    +0.241 C 
ATOM     39  N   THR A  15      -3.591  -0.008  21.400  0.00  0.00    -0.296 N 
ATOM     40  H   THR A  15      -4.576  -0.187  21.118  0.00  0.00    +0.150 HD
ATOM     41  O   ALA A  14      -1.463   0.182  20.685  0.00  0.00    -0.273 OA
BRANCH  39  42
ATOM     42  CA  THR A  15      -3.315   0.443  22.757  0.00  0.00    +0.164 C 
BRANCH  42  43
ATOM     43  C   THR A  15      -3.772  -0.645  23.721  0.00  0.00    +0.229 C 
ATOM     44  O   THR A  15      -4.546  -1.525  23.344  0.00  0.00    -0.286 OA
ENDBRANCH  42  43
BRANCH  42  45
ATOM     45  CB  THR A  15      -4.019   1.772  23.092  0.00  0.00    +0.136 C 
ATOM     46  CG2 THR A  15      -3.626   2.852  22.095  0.00  0.00    +0.034 C 
BRANCH  45  47
ATOM     47  OG1 THR A  15      -5.439   1.589  23.065  0.00  0.00    -0.382 OA
ATOM     48  HG1 THR A  15      -5.885   2.446  23.281  0.00  0.00    +0.210 HD
ENDBRANCH  45  47
ENDBRANCH  42  45
ENDBRANCH  39  42
ENDBRANCH  36  38
ENDBRANCH  33  36
ENDBRANCH  30  32
ENDBRANCH  28  30
ENDBRANCH  25  26
BRANCH  25  49
ATOM     49  CB  TRP A  12      -1.564  -4.342  13.220  0.00  0.00    +0.057 C 
BRANCH  49  50
ATOM     50  CG  TRP A  12      -2.949  -4.437  13.786  0.00  0.00    -0.002 A 
ATOM     51  CD1 TRP A  12      -3.289  -4.697  15.082  0.00  0.00    +0.068 A 
ATOM     52  NE1 TRP A  12      -4.656  -4.706  15.220  0.00  0.00    -0.352 N 
ATOM     53  HE1 TRP A  12      -5.173  -4.880  16.105  0.00  0.00    +0.166 HD
ATOM     54  CE2 TRP A  12      -5.227  -4.449  14.001  0.00  0.00    +0.056 A 
ATOM     55  CZ2 TRP A  12      -6.570  -4.356  13.638  0.00  0.00    +0.017 A 
ATOM     56  CH2 TRP A  12      -6.852  -4.084  12.327  0.00  0.00    +0.001 A 
ATOM     57  CZ3 TRP A  12      -5.835  -3.905  11.382  0.00  0.00    +0.000 A 
ATOM     58  CE3 TRP A  12      -4.501  -3.995  11.741  0.00  0.00    +0.001 A 
ATOM     59  CD2 TRP A  12      -4.181  -4.274  13.073  0.00  0.00    +0.013 A 
ENDBRANCH  49  50
ENDBRANCH  25  49
ENDBRANCH  22  25
ENDBRANCH  20  21
ENDBRANCH  17  20
ENDBRANCH  15  16
BRANCH  15  60
ATOM     60  CB  ARG A  10       0.887  -2.791   6.142  0.00  0.00    +0.033 C 
BRANCH  60  61
ATOM     61  CG  ARG A  10       0.905  -2.224   4.729  0.00  0.00    +0.045 C 
BRANCH  61  62
ATOM     62  CD  ARG A  10      -0.460  -1.694   4.315  0.00  0.00    +0.174 C 
BRANCH  62  63
ATOM     63  NE  ARG A  10      -1.423  -2.763   4.068  0.00  0.00    -0.265 N 
ATOM     64  HE  ARG A  10      -1.922  -3.168   4.886  0.00  0.00    +0.259 HD
ATOM     65  CZ  ARG A  10      -1.703  -3.252   2.863  0.00  0.00    +0.342 C 
ATOM     66  NH2 ARG A  10      -2.594  -4.225   2.731  0.00  0.00    -0.292 N 
ATOM     67 HH21 ARG A  10      -3.075  -4.607   3.570  0.00  0.00    +0.255 HD
ATOM     68 HH22 ARG A  10      -2.812  -4.606   1.788  0.00  0.00    +0.255 HD
ATOM     69  NH1 ARG A  10      -1.095  -2.765   1.790  0.00  0.00    -0.292 N 
ATOM     70 HH11 ARG A  10      -0.398  -2.000   1.890  0.00  0.00    +0.255 HD
ATOM     71 HH12 ARG A  10      -1.315  -3.148   0.849  0.00  0.00    +0.255 HD
ENDBRANCH  62  63
ENDBRANCH  61  62
ENDBRANCH  60  61
ENDBRANCH  15  60
ENDBRANCH  13  15
ENDBRANCH  10  11
ENDBRANCH   7  10
ENDBRANCH   5   6
BRANCH   5  72
ATOM     72  CB  HIS A   8       1.264  -6.208   1.622  0.00  0.00    +0.076 C 
BRANCH  72  73
ATOM     73  CG  HIS A   8       0.168  -7.027   1.012  0.00  0.00    +0.082 A 
ATOM     74  CD2 HIS A   8      -1.173  -6.843   0.989  0.00  0.00    +0.115 A 
ATOM     75  NE2 HIS A   8      -1.715  -7.898   0.295  0.00  0.00    -0.221 NA
ATOM     76  CE1 HIS A   8      -0.742  -8.700  -0.095  0.00  0.00    +0.199 A 
ATOM     77  ND1 HIS A   8       0.407  -8.196   0.324  0.00  0.00    -0.227 NA
ENDBRANCH  72  73
ENDBRANCH   5  72
ENDBRANCH   3   5
BRANCH   1  78
ATOM     78  CA  ARG A   7      -0.586  -7.670   5.358  0.00  0.00    +0.149 C 
BRANCH  78  81
ATOM     79  C   GLY A   6       0.012  -6.949   7.599  0.00  0.00    +0.243 C 
ATOM     80  O   GLY A   6       1.080  -7.561   7.558  0.00  0.00    -0.273 OA
ATOM     81  N   ARG A   7      -0.867  -6.962   6.602  0.00  0.00    -0.297 N 
ATOM     82  H   ARG A   7      -1.771  -6.459   6.711  0.00  0.00    +0.150 HD
BRANCH  79  83
ATOM     83  CA  GLY A   6      -0.356  -6.141   8.828  0.00  0.00    +0.176 C 
BRANCH  83  86
ATOM     84  C   ARG A   5       0.686  -6.862  10.904  0.00  0.00    +0.241 C 
ATOM     85  O   ARG A   5      -0.346  -7.392  11.318  0.00  0.00    -0.273 OA
ATOM     86  N   GLY A   6       0.749  -6.180   9.766  0.00  0.00    -0.295 N 
ATOM     87  H   GLY A   6       1.619  -5.657   9.540  0.00  0.00    +0.150 HD
BRANCH  84  88
ATOM     88  CA  ARG A   5       1.984  -6.955  11.696  0.00  0.00    +0.149 C 
BRANCH  88  91
ATOM     89  C   GLY A   4       2.121  -5.606  13.720  0.00  0.00    +0.243 C 
ATOM     90  O   GLY A   4       2.668  -4.673  13.130  0.00  0.00    -0.273 OA
ATOM     91  N   ARG A   5       1.756  -6.732  13.117  0.00  0.00    -0.297 N 
ATOM     92  H   ARG A   5       1.293  -7.477  13.677  0.00  0.00    +0.150 HD
BRANCH  89  93
ATOM     93  CA  GLY A   4       1.827  -5.524  15.205  0.00  0.00    +0.176 C 
BRANCH  93  95
ATOM     94  C   ALA A   3       4.076  -5.030  15.997  0.00  0.00    +0.241 C 
ATOM     95  N   GLY A   4       2.783  -4.726  15.952  0.00  0.00    -0.295 N 
ATOM     96  H   GLY A   4       2.445  -3.889  16.469  0.00  0.00    +0.150 HD
ATOM     97  O   ALA A   3       4.571  -5.967  15.368  0.00  0.00    -0.273 OA
BRANCH  94  98
ATOM     98  CA  ALA A   3       4.943  -4.145  16.886  0.00  0.00    +0.149 C 
ATOM     99  CB  ALA A   3       6.374  -4.664  16.919  0.00  0.00    +0.031 C 
BRANCH  98 102
ATOM    100  C   THR A   2       4.354  -2.912  18.897  0.00  0.00    +0.243 C 
ATOM    101  O   THR A   2       4.762  -1.854  18.415  0.00  0.00    -0.273 OA
ATOM    102  N   ALA A   3       4.399  -4.065  18.239  0.00  0.00    -0.297 N 
ATOM    103  H   ALA A   3       4.040  -4.927  18.696  0.00  0.00    +0.150 HD
BRANCH 100 104
ATOM    104  CA  THR A   2       3.773  -2.944  20.310  0.00  0.00    +0.176 C 
BRANCH 104 106
ATOM    105  C   GLN A   1       1.630  -4.098  20.490  0.00  0.00    +0.238 C 
ATOM    106  N   THR A   2       2.956  -4.123  20.596  0.00  0.00    -0.295 N 
ATOM    107  H   THR A   2       3.424  -5.004  20.890  0.00  0.00    +0.150 HD
ATOM    108  O   GLN A   1       1.018  -3.169  19.963  0.00  0.00    -0.274 OA
BRANCH 105 109
ATOM    109  CA  GLN A   1       0.880  -5.299  21.061  0.00  0.00    +0.145 C 
BRANCH 109 110
ATOM    110  N   GLN A   1      -0.016  -4.865  22.126  0.00  0.00    -0.238 NA
ATOM    111  H   GLN A   1      -0.610  -4.025  21.974  0.00  0.00    +0.142 HD
ENDBRANCH 109 110
BRANCH 109 112
ATOM    112  CB  GLN A   1       0.091  -6.022  19.968  0.00  0.00    +0.036 C 
BRANCH 112 113
ATOM    113  CG  GLN A   1       0.943  -6.722  18.930  0.00  0.00    +0.087 C 
BRANCH 113 114
ATOM    114  CD  GLN A   1       0.118  -7.576  17.986  0.00  0.00    +0.219 C 
ATOM    115  OE1 GLN A   1       0.172  -8.804  18.038  0.00  0.00    -0.275 OA
ATOM    116  NE2 GLN A   1      -0.650  -6.928  17.118  0.00  0.00    -0.329 N 
ATOM    117 HE21 GLN A   1      -0.663  -5.888  17.111  0.00  0.00    +0.145 HD
ATOM    118 HE22 GLN A   1      -1.238  -7.460  16.445  0.00  0.00    +0.145 HD
ENDBRANCH 113 114
ENDBRANCH 112 113
ENDBRANCH 109 112
ENDBRANCH 105 109
ENDBRANCH 104 106
BRANCH 104 119
ATOM    119  CB  THR A   2       4.937  -2.827  21.310  0.00  0.00    +0.137 C 
ATOM    120  CG2 THR A   2       4.407  -2.707  22.728  0.00  0.00    +0.034 C 
BRANCH 119 121
ATOM    121  OG1 THR A   2       5.771  -3.989  21.214  0.00  0.00    -0.382 OA
ATOM    122  HG1 THR A   2       6.519  -3.911  21.858  0.00  0.00    +0.210 HD
ENDBRANCH 119 121
ENDBRANCH 104 119
ENDBRANCH 100 104
ENDBRANCH  98 102
ENDBRANCH  94  98
ENDBRANCH  93  95
ENDBRANCH  89  93
ENDBRANCH  88  91
BRANCH  88 123
ATOM    123  CB  ARG A   5       2.630  -8.321  11.459  0.00  0.00    +0.033 C 
BRANCH 123 124
ATOM    124  CG  ARG A   5       4.012  -8.494  12.058  0.00  0.00    +0.045 C 
BRANCH 124 125
ATOM    125  CD  ARG A   5       4.530  -9.890  11.767  0.00  0.00    +0.174 C 
BRANCH 125 126
ATOM    126  NE  ARG A   5       5.880 -10.097  12.275  0.00  0.00    -0.265 N 
ATOM    127  HE  ARG A   5       6.350  -9.299  12.749  0.00  0.00    +0.259 HD
ATOM    128  CZ  ARG A   5       6.548 -11.240  12.171  0.00  0.00    +0.342 C 
ATOM    129  NH2 ARG A   5       7.775 -11.339  12.661  0.00  0.00    -0.292 N 
ATOM    130 HH21 ARG A   5       8.216 -10.521  13.128  0.00  0.00    +0.255 HD
ATOM    131 HH22 ARG A   5       8.297 -12.235  12.579  0.00  0.00    +0.255 HD
ATOM    132  NH1 ARG A   5       5.988 -12.286  11.577  0.00  0.00    -0.292 N 
ATOM    133 HH11 ARG A   5       6.512 -13.181  11.496  0.00  0.00    +0.255 HD
ATOM    134 HH12 ARG A   5       5.025 -12.211  11.192  0.00  0.00    +0.255 HD
ENDBRANCH 125 126
ENDBRANCH 124 125
ENDBRANCH 123 124
ENDBRANCH  88 123
ENDBRANCH  84  88
ENDBRANCH  83  86
ENDBRANCH  79  83
ENDBRANCH  78  81
BRANCH  78 135
ATOM    135  CB  ARG A   7      -1.875  -7.968   4.592  0.00  0.00    +0.033 C 
BRANCH 135 136
ATOM    136  CG  ARG A   7      -2.846  -8.849   5.353  0.00  0.00    +0.045 C 
BRANCH 136 137
ATOM    137  CD  ARG A   7      -3.880  -9.471   4.434  0.00  0.00    +0.174 C 
BRANCH 137 138
ATOM    138  NE  ARG A   7      -4.874  -8.508   3.978  0.00  0.00    -0.265 N 
ATOM    139  CZ  ARG A   7      -5.999  -8.231   4.629  0.00  0.00    +0.342 C 
ATOM    140  NH2 ARG A   7      -6.275  -8.833   5.780  0.00  0.00    -0.292 N 
ATOM    141 HH21 ARG A   7      -7.157  -8.612   6.284  0.00  0.00    +0.255 HD
ATOM    142 HH22 ARG A   7      -5.609  -9.526   6.177  0.00  0.00    +0.255 HD
ATOM    143  NH1 ARG A   7      -6.849  -7.345   4.133  0.00  0.00    -0.292 N 
ATOM    144 HH11 ARG A   7      -7.730  -7.128   4.642  0.00  0.00    +0.255 HD
ATOM    145 HH12 ARG A   7      -6.636  -6.866   3.235  0.00  0.00    +0.255 HD
ATOM    146  HE  ARG A   7      -4.691  -8.005   3.086  0.00  0.00    +0.259 HD
ENDBRANCH 137 138
ENDBRANCH 136 137
ENDBRANCH 135 136
ENDBRANCH  78 135
ENDBRANCH   1  78
TORSDOF 53
REMARK  Name = ../refined-set-2016/4xu2/4xu2_pocket.pdb
REMARK  231 active torsions:
REMARK  status: ('A' for Active; 'I' for Inactive)
REMARK    1  A    between atoms: _1  and  _3
REMARK    2  A    between atoms: _3  and  _4
REMARK    3  A    between atoms: _3  and  _6
REMARK    4  A    between atoms: _6  and  _7
REMARK    5  A    between atoms: _10  and  _12
REMARK    6  A    between atoms: _12  and  _13
REMARK    7  A    between atoms: _15  and  _17
REMARK    8  A    between atoms: _17  and  _18
REMARK    9  A    between atoms: _17  and  _20
REMARK   10  A    between atoms: _20  and  _21
REMARK   11  A    between atoms: _23  and  _25
REMARK   12  A    between atoms: _25  and  _26
REMARK   13  A    between atoms: _25  and  _28
REMARK   14  A    between atoms: _28  and  _29
REMARK   15  A    between atoms: _32  and  _34
REMARK   16  A    between atoms: _34  and  _35
REMARK   17  A    between atoms: _34  and  _37
REMARK   18  A    between atoms: _37  and  _38
REMARK   19  A    between atoms: _43  and  _45
REMARK   20  A    between atoms: _45  and  _46
REMARK   21  A    between atoms: _49  and  _51
REMARK   22  A    between atoms: _51  and  _52
REMARK   23  A    between atoms: _51  and  _54
REMARK   24  A    between atoms: _54  and  _55
REMARK   25  A    between atoms: _58  and  _60
REMARK   26  A    between atoms: _60  and  _61
REMARK   27  A    between atoms: _60  and  _63
REMARK   28  A    between atoms: _63  and  _64
REMARK   29  A    between atoms: _67  and  _69
REMARK   30  A    between atoms: _69  and  _70
REMARK   31  A    between atoms: _69  and  _72
REMARK   32  A    between atoms: _72  and  _73
REMARK   33  A    between atoms: _76  and  _78
REMARK   34  A    between atoms: _78  and  _79
REMARK   35  A    between atoms: _82  and  _84
REMARK   36  A    between atoms: _84  and  _85
REMARK   37  A    between atoms: _84  and  _87
REMARK   38  A    between atoms: _87  and  _88
REMARK   39  A    between atoms: _88  and  _89
REMARK   40  A    between atoms: _94  and  _96
REMARK   41  A    between atoms: _96  and  _97
REMARK   42  A    between atoms: _96  and  _99
REMARK   43  A    between atoms: _99  and  _100
REMARK   44  A    between atoms: _103  and  _105
REMARK   45  A    between atoms: _105  and  _106
REMARK   46  A    between atoms: _109  and  _111
REMARK   47  A    between atoms: _111  and  _112
REMARK   48  A    between atoms: _114  and  _116
REMARK   49  A    between atoms: _116  and  _117
REMARK   50  A    between atoms: _116  and  _119
REMARK   51  A    between atoms: _119  and  _120
REMARK   52  A    between atoms: _120  and  _121
REMARK   53  A    between atoms: _121  and  _122
REMARK   54  A    between atoms: _131  and  _133
REMARK   55  A    between atoms: _133  and  _134
REMARK   56  A    between atoms: _136  and  _138
REMARK   57  A    between atoms: _138  and  _139
REMARK   58  A    between atoms: _138  and  _141
REMARK   59  A    between atoms: _141  and  _142
REMARK   60  A    between atoms: _142  and  _143
REMARK   61  A    between atoms: _143  and  _144
REMARK   62  A    between atoms: _153  and  _155
REMARK   63  A    between atoms: _155  and  _156
REMARK   64  A    between atoms: _155  and  _158
REMARK   65  A    between atoms: _158  and  _159
REMARK   66  A    between atoms: _164  and  _166
REMARK   67  A    between atoms: _166  and  _167
REMARK   68  A    between atoms: _169  and  _171
REMARK   69  A    between atoms: _171  and  _172
REMARK   70  A    between atoms: _171  and  _174
REMARK   71  A    between atoms: _174  and  _175
REMARK   72  A    between atoms: _175  and  _176
REMARK   73  A    between atoms: _176  and  _177
REMARK   74  A    between atoms: _186  and  _188
REMARK   75  A    between atoms: _188  and  _189
REMARK   76  A    between atoms: _191  and  _193
REMARK   77  A    between atoms: _193  and  _194
REMARK   78  A    between atoms: _193  and  _196
REMARK   79  A    between atoms: _196  and  _197
REMARK   80  A    between atoms: _207  and  _209
REMARK   81  A    between atoms: _209  and  _210
REMARK   82  A    between atoms: _213  and  _215
REMARK   83  A    between atoms: _215  and  _216
REMARK   84  A    between atoms: _219  and  _221
REMARK   85  A    between atoms: _221  and  _222
REMARK   86  A    between atoms: _221  and  _224
REMARK   87  A    between atoms: _224  and  _225
REMARK   88  A    between atoms: _228  and  _230
REMARK   89  A    between atoms: _230  and  _231
REMARK   90  A    between atoms: _230  and  _233
REMARK   91  A    between atoms: _233  and  _234
REMARK   92  A    between atoms: _234  and  _235
REMARK   93  A    between atoms: _240  and  _242
REMARK   94  A    between atoms: _242  and  _243
REMARK   95  A    between atoms: _242  and  _245
REMARK   96  A    between atoms: _245  and  _246
REMARK   97  A    between atoms: _249  and  _251
REMARK   98  A    between atoms: _251  and  _252
REMARK   99  A    between atoms: _251  and  _254
REMARK  100  A    between atoms: _254  and  _255
REMARK  101  A    between atoms: _258  and  _260
REMARK  102  A    between atoms: _260  and  _261
REMARK  103  A    between atoms: _260  and  _263
REMARK  104  A    between atoms: _263  and  _264
REMARK  105  A    between atoms: _267  and  _269
REMARK  106  A    between atoms: _269  and  _270
REMARK  107  A    between atoms: _269  and  _272
REMARK  108  A    between atoms: _272  and  _273
REMARK  109  A    between atoms: _275  and  _277
REMARK  110  A    between atoms: _277  and  _278
REMARK  111  A    between atoms: _277  and  _280
REMARK  112  A    between atoms: _283  and  _285
REMARK  113  A    between atoms: _285  and  _286
REMARK  114  A    between atoms: _285  and  _288
REMARK  115  A    between atoms: _288  and  _289
REMARK  116  A    between atoms: _289  and  _290
REMARK  117  A    between atoms: _290  and  _291
REMARK  118  A    between atoms: _291  and  _292
REMARK  119  A    between atoms: _297  and  _298
REMARK  120  A    between atoms: _303  and  _305
REMARK  121  A    between atoms: _305  and  _306
REMARK  122  A    between atoms: _305  and  _308
REMARK  123  A    between atoms: _308  and  _309
REMARK  124  A    between atoms: _314  and  _316
REMARK  125  A    between atoms: _316  and  _317
REMARK  126  A    between atoms: _316  and  _319
REMARK  127  A    between atoms: _319  and  _320
REMARK  128  A    between atoms: _323  and  _325
REMARK  129  A    between atoms: _325  and  _326
REMARK  130  A    between atoms: _325  and  _328
REMARK  131  A    between atoms: _331  and  _333
REMARK  132  A    between atoms: _333  and  _334
REMARK  133  A    between atoms: _336  and  _338
REMARK  134  A    between atoms: _338  and  _339
REMARK  135  A    between atoms: _338  and  _341
REMARK  136  A    between atoms: _341  and  _342
REMARK  137  A    between atoms: _342  and  _343
REMARK  138  A    between atoms: _343  and  _344
REMARK  139  A    between atoms: _344  and  _345
REMARK  140  A    between atoms: _349  and  _351
REMARK  141  A    between atoms: _351  and  _352
REMARK  142  A    between atoms: _351  and  _354
REMARK  143  A    between atoms: _354  and  _355
REMARK  144  A    between atoms: _358  and  _360
REMARK  145  A    between atoms: _360  and  _361
REMARK  146  A    between atoms: _364  and  _366
REMARK  147  A    between atoms: _366  and  _367
REMARK  148  A    between atoms: _369  and  _371
REMARK  149  A    between atoms: _371  and  _372
REMARK  150  A    between atoms: _371  and  _374
REMARK  151  A    between atoms: _374  and  _375
REMARK  152  A    between atoms: _378  and  _380
REMARK  153  A    between atoms: _380  and  _381
REMARK  154  A    between atoms: _380  and  _383
REMARK  155  A    between atoms: _383  and  _384
REMARK  156  A    between atoms: _387  and  _389
REMARK  157  A    between atoms: _389  and  _390
REMARK  158  A    between atoms: _393  and  _395
REMARK  159  A    between atoms: _395  and  _396
REMARK  160  A    between atoms: _395  and  _398
REMARK  161  A    between atoms: _398  and  _399
REMARK  162  A    between atoms: _399  and  _400
REMARK  163  A    between atoms: _403  and  _405
REMARK  164  A    between atoms: _405  and  _406
REMARK  165  A    between atoms: _405  and  _408
REMARK  166  A    between atoms: _411  and  _413
REMARK  167  A    between atoms: _413  and  _414
REMARK  168  A    between atoms: _413  and  _416
REMARK  169  A    between atoms: _416  and  _417
REMARK  170  A    between atoms: _420  and  _422
REMARK  171  A    between atoms: _422  and  _423
REMARK  172  A    between atoms: _425  and  _427
REMARK  173  A    between atoms: _427  and  _428
REMARK  174  A    between atoms: _427  and  _430
REMARK  175  A    between atoms: _433  and  _435
REMARK  176  A    between atoms: _435  and  _436
REMARK  177  A    between atoms: _438  and  _440
REMARK  178  A    between atoms: _440  and  _441
REMARK  179  A    between atoms: _440  and  _443
REMARK  180  A    between atoms: _443  and  _444
REMARK  181  A    between atoms: _447  and  _449
REMARK  182  A    between atoms: _449  and  _450
REMARK  183  A    between atoms: _449  and  _452
REMARK  184  A    between atoms: _452  and  _453
REMARK  185  A    between atoms: _458  and  _460
REMARK  186  A    between atoms: _460  and  _461
REMARK  187  A    between atoms: _460  and  _463
REMARK  188  A    between atoms: _466  and  _468
REMARK  189  A    between atoms: _468  and  _469
REMARK  190  A    between atoms: _468  and  _471
REMARK  191  A    between atoms: _471  and  _472
REMARK  192  A    between atoms: _472  and  _473
REMARK  193  A    between atoms: _478  and  _480
REMARK  194  A    between atoms: _480  and  _481
REMARK  195  A    between atoms: _485  and  _486
REMARK  196  A    between atoms: _491  and  _493
REMARK  197  A    between atoms: _493  and  _494
REMARK  198  A    between atoms: _493  and  _496
REMARK  199  A    between atoms: _496  and  _497
REMARK  200  A    between atoms: _497  and  _498
REMARK  201  A    between atoms: _501  and  _503
REMARK  202  A    between atoms: _503  and  _504
REMARK  203  A    between atoms: _503  and  _506
REMARK  204  A    between atoms: _509  and  _511
REMARK  205  A    between atoms: _511  and  _512
REMARK  206  A    between atoms: _511  and  _514
REMARK  207  A    between atoms: _514  and  _515
REMARK  208  A    between atoms: _519  and  _520
REMARK  209  A    between atoms: _525  and  _527
REMARK  210  A    between atoms: _527  and  _528
REMARK  211  A    between atoms: _527  and  _530
REMARK  212  A    between atoms: _530  and  _531
REMARK  213  A    between atoms: _534  and  _536
REMARK  214  A    between atoms: _536  and  _537
REMARK  215  A    between atoms: _540  and  _542
REMARK  216  A    between atoms: _542  and  _543
REMARK  217  A    between atoms: _542  and  _545
REMARK  218  A    between atoms: _545  and  _546
REMARK  219  A    between atoms: _549  and  _551
REMARK  220  A    between atoms: _551  and  _552
REMARK  221  A    between atoms: _551  and  _554
REMARK  222  A    between atoms: _554  and  _555
REMARK  223  A    between atoms: _557  and  _559
REMARK  224  A    between atoms: _559  and  _560
REMARK  225  A    between atoms: _562  and  _564
REMARK  226  A    between atoms: _564  and  _565
REMARK  227  A    between atoms: _564  and  _567
REMARK  228  A    between atoms: _567  and  _568
REMARK  229  A    between atoms: _571  and  _573
REMARK  230  A    between atoms: _573  and  _574
REMARK  231  A    between atoms: _573  and  _576
REMARK                            x       y       z     vdW  Elec       q    Type
REMARK                         _______ _______ _______ _____ _____    ______ ____
ROOT
ATOM      1  CA  ILE A   3      -5.442  -9.380  20.052  0.00  0.00    +0.149 C 
ENDROOT
BRANCH   1   3
ATOM      2  C   ILE A   2      -7.802  -8.827  20.330  0.00  0.00    +0.241 C 
ATOM      3  N   ILE A   3      -6.626  -9.134  20.862  0.00  0.00    -0.297 N 
ATOM      4  H   ILE A   3      -6.547  -9.201  21.897  0.00  0.00    +0.150 HD
ATOM      5  O   ILE A   2      -8.003  -8.775  19.116  0.00  0.00    -0.273 OA
BRANCH   2   6
ATOM      6  CA  ILE A   2      -8.906  -8.492  21.321  0.00  0.00    +0.148 C 
BRANCH   6   9
ATOM      7  C   GLN A   1      -8.618  -6.171  21.943  0.00  0.00    +0.238 C 
ATOM      8  O   GLN A   1      -8.127  -6.438  23.040  0.00  0.00    -0.274 OA
ATOM      9  N   ILE A   2      -9.187  -7.077  21.159  0.00  0.00    -0.297 N 
ATOM     10  H   ILE A   2      -9.846  -6.768  20.416  0.00  0.00    +0.150 HD
BRANCH   7  11
ATOM     11  CA  GLN A   1      -8.607  -4.751  21.402  0.00  0.00    +0.145 C 
BRANCH  11  12
ATOM     12  N   GLN A   1      -8.275  -3.775  22.431  0.00  0.00    -0.238 NA
ATOM     13  H   GLN A   1      -7.433  -3.928  23.023  0.00  0.00    +0.142 HD
ENDBRANCH  11  12
BRANCH  11  14
ATOM     14  CB  GLN A   1      -7.609  -4.681  20.241  0.00  0.00    +0.036 C 
BRANCH  14  15
ATOM     15  CG  GLN A   1      -7.568  -3.369  19.488  0.00  0.00    +0.087 C 
BRANCH  15  16
ATOM     16  CD  GLN A   1      -6.577  -3.407  18.338  0.00  0.00    +0.219 C 
ATOM     17  NE2 GLN A   1      -6.005  -2.255  18.010  0.00  0.00    -0.329 N 
ATOM     18 HE21 GLN A   1      -6.249  -1.387  18.529  0.00  0.00    +0.145 HD
ATOM     19 HE22 GLN A   1      -5.313  -2.220  17.234  0.00  0.00    +0.145 HD
ATOM     20  OE1 GLN A   1      -6.324  -4.464  17.756  0.00  0.00    -0.275 OA
ENDBRANCH  15  16
ENDBRANCH  14  15
ENDBRANCH  11  14
ENDBRANCH   7  11
ENDBRANCH   6   9
BRANCH   6  21
ATOM     21  CB  ILE A   2     -10.143  -9.373  21.082  0.00  0.00    +0.027 C 
ATOM     22  CG2 ILE A   2      -9.744 -10.838  21.011  0.00  0.00    +0.002 C 
BRANCH  21  23
ATOM     23  CG1 ILE A   2     -11.160  -9.166  22.206  0.00  0.00    +0.002 C 
ATOM     24  CD1 ILE A   2     -12.408 -10.006  22.064  0.00  0.00    +0.000 C 
ENDBRANCH  21  23
ENDBRANCH   6  21
ENDBRANCH   2   6
ENDBRANCH   1   3
BRANCH   1  25
ATOM     25  C   ILE A   3      -4.983 -10.817  20.243  0.00  0.00    +0.241 C 
ATOM     26  O   ILE A   3      -4.424 -11.157  21.283  0.00  0.00    -0.273 OA
ATOM     27  N   LEU A   4      -5.223 -11.667  19.251  0.00  0.00    -0.297 N 
ATOM     28  H   LEU A   4      -5.656 -11.333  18.366  0.00  0.00    +0.150 HD
BRANCH  27  29
ATOM     29  CA  LEU A   4      -4.874 -13.071  19.416  0.00  0.00    +0.149 C 
BRANCH  29  30
ATOM     30  C   LEU A   4      -4.349 -13.737  18.153  0.00  0.00    +0.241 C 
ATOM     31  N   SER A   5      -3.622 -14.828  18.363  0.00  0.00    -0.295 N 
ATOM     32  H   SER A   5      -3.360 -15.073  19.339  0.00  0.00    +0.150 HD
ATOM     33  O   LEU A   4      -4.592 -13.283  17.032  0.00  0.00    -0.273 OA
BRANCH  31  34
ATOM     34  CA  SER A   5      -3.178 -15.692  17.285  0.00  0.00    +0.178 C 
BRANCH  34  35
ATOM     35  C   SER A   5      -3.451 -17.145  17.659  0.00  0.00    +0.243 C 
ATOM     36  O   SER A   5      -3.359 -17.518  18.830  0.00  0.00    -0.273 OA
ATOM     37  N   VAL A   6      -3.806 -17.955  16.667  0.00  0.00    -0.298 N 
ATOM     38  H   VAL A   6      -3.946 -17.560  15.715  0.00  0.00    +0.150 HD
BRANCH  37  39
ATOM     39  CA  VAL A   6      -4.005 -19.385  16.879  0.00  0.00    +0.137 C 
BRANCH  39  40
ATOM     40  CB  VAL A   6      -5.493 -19.792  16.764  0.00  0.00    +0.026 C 
ATOM     41  CG2 VAL A   6      -6.327 -19.096  17.831  0.00  0.00    +0.002 C 
ATOM     42  CG1 VAL A   6      -6.029 -19.490  15.372  0.00  0.00    +0.002 C 
ENDBRANCH  39  40
BRANCH  39  43
ATOM     43  C   VAL A   6      -3.189 -20.186  15.873  0.00  0.00    +0.227 C 
ATOM     44  O   VAL A   6      -2.905 -19.713  14.772  0.00  0.00    -0.286 OA
ENDBRANCH  39  43
ENDBRANCH  37  39
ENDBRANCH  34  35
BRANCH  34  45
ATOM     45  CB  SER A   5      -1.691 -15.481  16.992  0.00  0.00    +0.166 C 
BRANCH  45  46
ATOM     46  OG  SER A   5      -1.442 -14.161  16.544  0.00  0.00    -0.380 OA
ATOM     47  H   SER A   5      -1.722 -13.518  17.243  0.00  0.00    +0.211 HD
ENDBRANCH  45  46
ENDBRANCH  34  45
ENDBRANCH  31  34
ENDBRANCH  29  30
BRANCH  29  48
ATOM     48  CB  LEU A   4      -6.082 -13.857  19.948  0.00  0.00    +0.029 C 
BRANCH  48  49
ATOM     49  CG  LEU A   4      -7.388 -13.945  19.150  0.00  0.00    +0.002 C 
ATOM     50  CD2 LEU A   4      -8.556 -14.166  20.097  0.00  0.00    +0.000 C 
ATOM     51  CD1 LEU A   4      -7.349 -15.046  18.096  0.00  0.00    +0.000 C 
ENDBRANCH  48  49
ENDBRANCH  29  48
ENDBRANCH  27  29
ENDBRANCH   1  25
BRANCH   1  52
ATOM     52  CB  ILE A   3      -4.295  -8.418  20.430  0.00  0.00    +0.027 C 
ATOM     53  CG2 ILE A   3      -3.040  -8.735  19.642  0.00  0.00    +0.002 C 
BRANCH  52  54
ATOM     54  CG1 ILE A   3      -4.719  -6.965  20.211  0.00  0.00    +0.002 C 
ATOM     55  CD1 ILE A   3      -3.646  -5.960  20.566  0.00  0.00    +0.000 C 
ENDBRANCH  52  54
ENDBRANCH   1  52
TORSDOF 24
REMARK  Name = ../refined-set-2016/4xu2/4xu2_pocket.pdb
REMARK  231 active torsions:
REMARK  status: ('A' for Active; 'I' for Inactive)
REMARK    1  A    between atoms: _1  and  _3
REMARK    2  A    between atoms: _3  and  _4
REMARK    3  A    between atoms: _3  and  _6
REMARK    4  A    between atoms: _6  and  _7
REMARK    5  A    between atoms: _10  and  _12
REMARK    6  A    between atoms: _12  and  _13
REMARK    7  A    between atoms: _15  and  _17
REMARK    8  A    between atoms: _17  and  _18
REMARK    9  A    between atoms: _17  and  _20
REMARK   10  A    between atoms: _20  and  _21
REMARK   11  A    between atoms: _23  and  _25
REMARK   12  A    between atoms: _25  and  _26
REMARK   13  A    between atoms: _25  and  _28
REMARK   14  A    between atoms: _28  and  _29
REMARK   15  A    between atoms: _32  and  _34
REMARK   16  A    between atoms: _34  and  _35
REMARK   17  A    between atoms: _34  and  _37
REMARK   18  A    between atoms: _37  and  _38
REMARK   19  A    between atoms: _43  and  _45
REMARK   20  A    between atoms: _45  and  _46
REMARK   21  A    between atoms: _49  and  _51
REMARK   22  A    between atoms: _51  and  _52
REMARK   23  A    between atoms: _51  and  _54
REMARK   24  A    between atoms: _54  and  _55
REMARK   25  A    between atoms: _58  and  _60
REMARK   26  A    between atoms: _60  and  _61
REMARK   27  A    between atoms: _60  and  _63
REMARK   28  A    between atoms: _63  and  _64
REMARK   29  A    between atoms: _67  and  _69
REMARK   30  A    between atoms: _69  and  _70
REMARK   31  A    between atoms: _69  and  _72
REMARK   32  A    between atoms: _72  and  _73
REMARK   33  A    between atoms: _76  and  _78
REMARK   34  A    between atoms: _78  and  _79
REMARK   35  A    between atoms: _82  and  _84
REMARK   36  A    between atoms: _84  and  _85
REMARK   37  A    between atoms: _84  and  _87
REMARK   38  A    between atoms: _87  and  _88
REMARK   39  A    between atoms: _88  and  _89
REMARK   40  A    between atoms: _94  and  _96
REMARK   41  A    between atoms: _96  and  _97
REMARK   42  A    between atoms: _96  and  _99
REMARK   43  A    between atoms: _99  and  _100
REMARK   44  A    between atoms: _103  and  _105
REMARK   45  A    between atoms: _105  and  _106
REMARK   46  A    between atoms: _109  and  _111
REMARK   47  A    between atoms: _111  and  _112
REMARK   48  A    between atoms: _114  and  _116
REMARK   49  A    between atoms: _116  and  _117
REMARK   50  A    between atoms: _116  and  _119
REMARK   51  A    between atoms: _119  and  _120
REMARK   52  A    between atoms: _120  and  _121
REMARK   53  A    between atoms: _121  and  _122
REMARK   54  A    between atoms: _131  and  _133
REMARK   55  A    between atoms: _133  and  _134
REMARK   56  A    between atoms: _136  and  _138
REMARK   57  A    between atoms: _138  and  _139
REMARK   58  A    between atoms: _138  and  _141
REMARK   59  A    between atoms: _141  and  _142
REMARK   60  A    between atoms: _142  and  _143
REMARK   61  A    between atoms: _143  and  _144
REMARK   62  A    between atoms: _153  and  _155
REMARK   63  A    between atoms: _155  and  _156
REMARK   64  A    between atoms: _155  and  _158
REMARK   65  A    between atoms: _158  and  _159
REMARK   66  A    between atoms: _164  and  _166
REMARK   67  A    between atoms: _166  and  _167
REMARK   68  A    between atoms: _169  and  _171
REMARK   69  A    between atoms: _171  and  _172
REMARK   70  A    between atoms: _171  and  _174
REMARK   71  A    between atoms: _174  and  _175
REMARK   72  A    between atoms: _175  and  _176
REMARK   73  A    between atoms: _176  and  _177
REMARK   74  A    between atoms: _186  and  _188
REMARK   75  A    between atoms: _188  and  _189
REMARK   76  A    between atoms: _191  and  _193
REMARK   77  A    between atoms: _193  and  _194
REMARK   78  A    between atoms: _193  and  _196
REMARK   79  A    between atoms: _196  and  _197
REMARK   80  A    between atoms: _207  and  _209
REMARK   81  A    between atoms: _209  and  _210
REMARK   82  A    between atoms: _213  and  _215
REMARK   83  A    between atoms: _215  and  _216
REMARK   84  A    between atoms: _219  and  _221
REMARK   85  A    between atoms: _221  and  _222
REMARK   86  A    between atoms: _221  and  _224
REMARK   87  A    between atoms: _224  and  _225
REMARK   88  A    between atoms: _228  and  _230
REMARK   89  A    between atoms: _230  and  _231
REMARK   90  A    between atoms: _230  and  _233
REMARK   91  A    between atoms: _233  and  _234
REMARK   92  A    between atoms: _234  and  _235
REMARK   93  A    between atoms: _240  and  _242
REMARK   94  A    between atoms: _242  and  _243
REMARK   95  A    between atoms: _242  and  _245
REMARK   96  A    between atoms: _245  and  _246
REMARK   97  A    between atoms: _249  and  _251
REMARK   98  A    between atoms: _251  and  _252
REMARK   99  A    between atoms: _251  and  _254
REMARK  100  A    between atoms: _254  and  _255
REMARK  101  A    between atoms: _258  and  _260
REMARK  102  A    between atoms: _260  and  _261
REMARK  103  A    between atoms: _260  and  _263
REMARK  104  A    between atoms: _263  and  _264
REMARK  105  A    between atoms: _267  and  _269
REMARK  106  A    between atoms: _269  and  _270
REMARK  107  A    between atoms: _269  and  _272
REMARK  108  A    between atoms: _272  and  _273
REMARK  109  A    between atoms: _275  and  _277
REMARK  110  A    between atoms: _277  and  _278
REMARK  111  A    between atoms: _277  and  _280
REMARK  112  A    between atoms: _283  and  _285
REMARK  113  A    between atoms: _285  and  _286
REMARK  114  A    between atoms: _285  and  _288
REMARK  115  A    between atoms: _288  and  _289
REMARK  116  A    between atoms: _289  and  _290
REMARK  117  A    between atoms: _290  and  _291
REMARK  118  A    between atoms: _291  and  _292
REMARK  119  A    between atoms: _297  and  _298
REMARK  120  A    between atoms: _303  and  _305
REMARK  121  A    between atoms: _305  and  _306
REMARK  122  A    between atoms: _305  and  _308
REMARK  123  A    between atoms: _308  and  _309
REMARK  124  A    between atoms: _314  and  _316
REMARK  125  A    between atoms: _316  and  _317
REMARK  126  A    between atoms: _316  and  _319
REMARK  127  A    between atoms: _319  and  _320
REMARK  128  A    between atoms: _323  and  _325
REMARK  129  A    between atoms: _325  and  _326
REMARK  130  A    between atoms: _325  and  _328
REMARK  131  A    between atoms: _331  and  _333
REMARK  132  A    between atoms: _333  and  _334
REMARK  133  A    between atoms: _336  and  _338
REMARK  134  A    between atoms: _338  and  _339
REMARK  135  A    between atoms: _338  and  _341
REMARK  136  A    between atoms: _341  and  _342
REMARK  137  A    between atoms: _342  and  _343
REMARK  138  A    between atoms: _343  and  _344
REMARK  139  A    between atoms: _344  and  _345
REMARK  140  A    between atoms: _349  and  _351
REMARK  141  A    between atoms: _351  and  _352
REMARK  142  A    between atoms: _351  and  _354
REMARK  143  A    between atoms: _354  and  _355
REMARK  144  A    between atoms: _358  and  _360
REMARK  145  A    between atoms: _360  and  _361
REMARK  146  A    between atoms: _364  and  _366
REMARK  147  A    between atoms: _366  and  _367
REMARK  148  A    between atoms: _369  and  _371
REMARK  149  A    between atoms: _371  and  _372
REMARK  150  A    between atoms: _371  and  _374
REMARK  151  A    between atoms: _374  and  _375
REMARK  152  A    between atoms: _378  and  _380
REMARK  153  A    between atoms: _380  and  _381
REMARK  154  A    between atoms: _380  and  _383
REMARK  155  A    between atoms: _383  and  _384
REMARK  156  A    between atoms: _387  and  _389
REMARK  157  A    between atoms: _389  and  _390
REMARK  158  A    between atoms: _393  and  _395
REMARK  159  A    between atoms: _395  and  _396
REMARK  160  A    between atoms: _395  and  _398
REMARK  161  A    between atoms: _398  and  _399
REMARK  162  A    between atoms: _399  and  _400
REMARK  163  A    between atoms: _403  and  _405
REMARK  164  A    between atoms: _405  and  _406
REMARK  165  A    between atoms: _405  and  _408
REMARK  166  A    between atoms: _411  and  _413
REMARK  167  A    between atoms: _413  and  _414
REMARK  168  A    between atoms: _413  and  _416
REMARK  169  A    between atoms: _416  and  _417
REMARK  170  A    between atoms: _420  and  _422
REMARK  171  A    between atoms: _422  and  _423
REMARK  172  A    between atoms: _425  and  _427
REMARK  173  A    between atoms: _427  and  _428
REMARK  174  A    between atoms: _427  and  _430
REMARK  175  A    between atoms: _433  and  _435
REMARK  176  A    between atoms: _435  and  _436
REMARK  177  A    between atoms: _438  and  _440
REMARK  178  A    between atoms: _440  and  _441
REMARK  179  A    between atoms: _440  and  _443
REMARK  180  A    between atoms: _443  and  _444
REMARK  181  A    between atoms: _447  and  _449
REMARK  182  A    between atoms: _449  and  _450
REMARK  183  A    between atoms: _449  and  _452
REMARK  184  A    between atoms: _452  and  _453
REMARK  185  A    between atoms: _458  and  _460
REMARK  186  A    between atoms: _460  and  _461
REMARK  187  A    between atoms: _460  and  _463
REMARK  188  A    between atoms: _466  and  _468
REMARK  189  A    between atoms: _468  and  _469
REMARK  190  A    between atoms: _468  and  _471
REMARK  191  A    between atoms: _471  and  _472
REMARK  192  A    between atoms: _472  and  _473
REMARK  193  A    between atoms: _478  and  _480
REMARK  194  A    between atoms: _480  and  _481
REMARK  195  A    between atoms: _485  and  _486
REMARK  196  A    between atoms: _491  and  _493
REMARK  197  A    between atoms: _493  and  _494
REMARK  198  A    between atoms: _493  and  _496
REMARK  199  A    between atoms: _496  and  _497
REMARK  200  A    between atoms: _497  and  _498
REMARK  201  A    between atoms: _501  and  _503
REMARK  202  A    between atoms: _503  and  _504
REMARK  203  A    between atoms: _503  and  _506
REMARK  204  A    between atoms: _509  and  _511
REMARK  205  A    between atoms: _511  and  _512
REMARK  206  A    between atoms: _511  and  _514
REMARK  207  A    between atoms: _514  and  _515
REMARK  208  A    between atoms: _519  and  _520
REMARK  209  A    between atoms: _525  and  _527
REMARK  210  A    between atoms: _527  and  _528
REMARK  211  A    between atoms: _527  and  _530
REMARK  212  A    between atoms: _530  and  _531
REMARK  213  A    between atoms: _534  and  _536
REMARK  214  A    between atoms: _536  and  _537
REMARK  215  A    between atoms: _540  and  _542
REMARK  216  A    between atoms: _542  and  _543
REMARK  217  A    between atoms: _542  and  _545
REMARK  218  A    between atoms: _545  and  _546
REMARK  219  A    between atoms: _549  and  _551
REMARK  220  A    between atoms: _551  and  _552
REMARK  221  A    between atoms: _551  and  _554
REMARK  222  A    between atoms: _554  and  _555
REMARK  223  A    between atoms: _557  and  _559
REMARK  224  A    between atoms: _559  and  _560
REMARK  225  A    between atoms: _562  and  _564
REMARK  226  A    between atoms: _564  and  _565
REMARK  227  A    between atoms: _564  and  _567
REMARK  228  A    between atoms: _567  and  _568
REMARK  229  A    between atoms: _571  and  _573
REMARK  230  A    between atoms: _573  and  _574
REMARK  231  A    between atoms: _573  and  _576
REMARK                            x       y       z     vdW  Elec       q    Type
REMARK                         _______ _______ _______ _____ _____    ______ ____
ROOT
ATOM      1  CG  LYS A   1     -13.395  -5.120   1.500  0.00  0.00    -0.000 C 
ENDROOT
BRANCH   1   2
ATOM      2  CB  LYS A   1     -14.063  -5.675   2.755  0.00  0.00    +0.025 C 
BRANCH   2   3
ATOM      3  CA  LYS A   1     -14.537  -7.123   2.603  0.00  0.00    +0.133 C 
BRANCH   3   4
ATOM      4  N   LYS A   1     -15.183  -7.602   3.819  0.00  0.00    -0.239 NA
ATOM      5  H   LYS A   1     -14.752  -7.394   4.742  0.00  0.00    +0.142 HD
ENDBRANCH   3   4
BRANCH   3   6
ATOM      6  C   LYS A   1     -13.364  -8.030   2.261  0.00  0.00    +0.224 C 
ATOM      7  O   LYS A   1     -12.521  -8.315   3.113  0.00  0.00    -0.287 OA
ENDBRANCH   3   6
ENDBRANCH   2   3
ENDBRANCH   1   2
BRANCH   1   8
ATOM      8  CD  LYS A   1     -13.180  -3.615   1.580  0.00  0.00    -0.024 C 
BRANCH   8   9
ATOM      9  CE  LYS A   1     -12.075  -3.253   2.558  0.00  0.00    -0.086 C 
BRANCH   9  10
ATOM     10  NZ  LYS A   1     -11.792  -1.790   2.543  0.00  0.00    +0.380 N 
ATOM     11  HZ1 LYS A   1     -11.033  -1.578   3.222  0.00  0.00    -0.089 HD
ATOM     12  HZ2 LYS A   1     -12.652  -1.269   2.809  0.00  0.00    -0.089 HD
ATOM     13  HZ3 LYS A   1     -11.494  -1.506   1.588  0.00  0.00    -0.089 HD
ENDBRANCH   9  10
ENDBRANCH   8   9
ENDBRANCH   1   8
TORSDOF 7
REMARK  Name = ../refined-set-2016/4xu2/4xu2_pocket.pdb
REMARK  231 active torsions:
REMARK  status: ('A' for Active; 'I' for Inactive)
REMARK    1  A    between atoms: _1  and  _3
REMARK    2  A    between atoms: _3  and  _4
REMARK    3  A    between atoms: _3  and  _6
REMARK    4  A    between atoms: _6  and  _7
REMARK    5  A    between atoms: _10  and  _12
REMARK    6  A    between atoms: _12  and  _13
REMARK    7  A    between atoms: _15  and  _17
REMARK    8  A    between atoms: _17  and  _18
REMARK    9  A    between atoms: _17  and  _20
REMARK   10  A    between atoms: _20  and  _21
REMARK   11  A    between atoms: _23  and  _25
REMARK   12  A    between atoms: _25  and  _26
REMARK   13  A    between atoms: _25  and  _28
REMARK   14  A    between atoms: _28  and  _29
REMARK   15  A    between atoms: _32  and  _34
REMARK   16  A    between atoms: _34  and  _35
REMARK   17  A    between atoms: _34  and  _37
REMARK   18  A    between atoms: _37  and  _38
REMARK   19  A    between atoms: _43  and  _45
REMARK   20  A    between atoms: _45  and  _46
REMARK   21  A    between atoms: _49  and  _51
REMARK   22  A    between atoms: _51  and  _52
REMARK   23  A    between atoms: _51  and  _54
REMARK   24  A    between atoms: _54  and  _55
REMARK   25  A    between atoms: _58  and  _60
REMARK   26  A    between atoms: _60  and  _61
REMARK   27  A    between atoms: _60  and  _63
REMARK   28  A    between atoms: _63  and  _64
REMARK   29  A    between atoms: _67  and  _69
REMARK   30  A    between atoms: _69  and  _70
REMARK   31  A    between atoms: _69  and  _72
REMARK   32  A    between atoms: _72  and  _73
REMARK   33  A    between atoms: _76  and  _78
REMARK   34  A    between atoms: _78  and  _79
REMARK   35  A    between atoms: _82  and  _84
REMARK   36  A    between atoms: _84  and  _85
REMARK   37  A    between atoms: _84  and  _87
REMARK   38  A    between atoms: _87  and  _88
REMARK   39  A    between atoms: _88  and  _89
REMARK   40  A    between atoms: _94  and  _96
REMARK   41  A    between atoms: _96  and  _97
REMARK   42  A    between atoms: _96  and  _99
REMARK   43  A    between atoms: _99  and  _100
REMARK   44  A    between atoms: _103  and  _105
REMARK   45  A    between atoms: _105  and  _106
REMARK   46  A    between atoms: _109  and  _111
REMARK   47  A    between atoms: _111  and  _112
REMARK   48  A    between atoms: _114  and  _116
REMARK   49  A    between atoms: _116  and  _117
REMARK   50  A    between atoms: _116  and  _119
REMARK   51  A    between atoms: _119  and  _120
REMARK   52  A    between atoms: _120  and  _121
REMARK   53  A    between atoms: _121  and  _122
REMARK   54  A    between atoms: _131  and  _133
REMARK   55  A    between atoms: _133  and  _134
REMARK   56  A    between atoms: _136  and  _138
REMARK   57  A    between atoms: _138  and  _139
REMARK   58  A    between atoms: _138  and  _141
REMARK   59  A    between atoms: _141  and  _142
REMARK   60  A    between atoms: _142  and  _143
REMARK   61  A    between atoms: _143  and  _144
REMARK   62  A    between atoms: _153  and  _155
REMARK   63  A    between atoms: _155  and  _156
REMARK   64  A    between atoms: _155  and  _158
REMARK   65  A    between atoms: _158  and  _159
REMARK   66  A    between atoms: _164  and  _166
REMARK   67  A    between atoms: _166  and  _167
REMARK   68  A    between atoms: _169  and  _171
REMARK   69  A    between atoms: _171  and  _172
REMARK   70  A    between atoms: _171  and  _174
REMARK   71  A    between atoms: _174  and  _175
REMARK   72  A    between atoms: _175  and  _176
REMARK   73  A    between atoms: _176  and  _177
REMARK   74  A    between atoms: _186  and  _188
REMARK   75  A    between atoms: _188  and  _189
REMARK   76  A    between atoms: _191  and  _193
REMARK   77  A    between atoms: _193  and  _194
REMARK   78  A    between atoms: _193  and  _196
REMARK   79  A    between atoms: _196  and  _197
REMARK   80  A    between atoms: _207  and  _209
REMARK   81  A    between atoms: _209  and  _210
REMARK   82  A    between atoms: _213  and  _215
REMARK   83  A    between atoms: _215  and  _216
REMARK   84  A    between atoms: _219  and  _221
REMARK   85  A    between atoms: _221  and  _222
REMARK   86  A    between atoms: _221  and  _224
REMARK   87  A    between atoms: _224  and  _225
REMARK   88  A    between atoms: _228  and  _230
REMARK   89  A    between atoms: _230  and  _231
REMARK   90  A    between atoms: _230  and  _233
REMARK   91  A    between atoms: _233  and  _234
REMARK   92  A    between atoms: _234  and  _235
REMARK   93  A    between atoms: _240  and  _242
REMARK   94  A    between atoms: _242  and  _243
REMARK   95  A    between atoms: _242  and  _245
REMARK   96  A    between atoms: _245  and  _246
REMARK   97  A    between atoms: _249  and  _251
REMARK   98  A    between atoms: _251  and  _252
REMARK   99  A    between atoms: _251  and  _254
REMARK  100  A    between atoms: _254  and  _255
REMARK  101  A    between atoms: _258  and  _260
REMARK  102  A    between atoms: _260  and  _261
REMARK  103  A    between atoms: _260  and  _263
REMARK  104  A    between atoms: _263  and  _264
REMARK  105  A    between atoms: _267  and  _269
REMARK  106  A    between atoms: _269  and  _270
REMARK  107  A    between atoms: _269  and  _272
REMARK  108  A    between atoms: _272  and  _273
REMARK  109  A    between atoms: _275  and  _277
REMARK  110  A    between atoms: _277  and  _278
REMARK  111  A    between atoms: _277  and  _280
REMARK  112  A    between atoms: _283  and  _285
REMARK  113  A    between atoms: _285  and  _286
REMARK  114  A    between atoms: _285  and  _288
REMARK  115  A    between atoms: _288  and  _289
REMARK  116  A    between atoms: _289  and  _290
REMARK  117  A    between atoms: _290  and  _291
REMARK  118  A    between atoms: _291  and  _292
REMARK  119  A    between atoms: _297  and  _298
REMARK  120  A    between atoms: _303  and  _305
REMARK  121  A    between atoms: _305  and  _306
REMARK  122  A    between atoms: _305  and  _308
REMARK  123  A    between atoms: _308  and  _309
REMARK  124  A    between atoms: _314  and  _316
REMARK  125  A    between atoms: _316  and  _317
REMARK  126  A    between atoms: _316  and  _319
REMARK  127  A    between atoms: _319  and  _320
REMARK  128  A    between atoms: _323  and  _325
REMARK  129  A    between atoms: _325  and  _326
REMARK  130  A    between atoms: _325  and  _328
REMARK  131  A    between atoms: _331  and  _333
REMARK  132  A    between atoms: _333  and  _334
REMARK  133  A    between atoms: _336  and  _338
REMARK  134  A    between atoms: _338  and  _339
REMARK  135  A    between atoms: _338  and  _341
REMARK  136  A    between atoms: _341  and  _342
REMARK  137  A    between atoms: _342  and  _343
REMARK  138  A    between atoms: _343  and  _344
REMARK  139  A    between atoms: _344  and  _345
REMARK  140  A    between atoms: _349  and  _351
REMARK  141  A    between atoms: _351  and  _352
REMARK  142  A    between atoms: _351  and  _354
REMARK  143  A    between atoms: _354  and  _355
REMARK  144  A    between atoms: _358  and  _360
REMARK  145  A    between atoms: _360  and  _361
REMARK  146  A    between atoms: _364  and  _366
REMARK  147  A    between atoms: _366  and  _367
REMARK  148  A    between atoms: _369  and  _371
REMARK  149  A    between atoms: _371  and  _372
REMARK  150  A    between atoms: _371  and  _374
REMARK  151  A    between atoms: _374  and  _375
REMARK  152  A    between atoms: _378  and  _380
REMARK  153  A    between atoms: _380  and  _381
REMARK  154  A    between atoms: _380  and  _383
REMARK  155  A    between atoms: _383  and  _384
REMARK  156  A    between atoms: _387  and  _389
REMARK  157  A    between atoms: _389  and  _390
REMARK  158  A    between atoms: _393  and  _395
REMARK  159  A    between atoms: _395  and  _396
REMARK  160  A    between atoms: _395  and  _398
REMARK  161  A    between atoms: _398  and  _399
REMARK  162  A    between atoms: _399  and  _400
REMARK  163  A    between atoms: _403  and  _405
REMARK  164  A    between atoms: _405  and  _406
REMARK  165  A    between atoms: _405  and  _408
REMARK  166  A    between atoms: _411  and  _413
REMARK  167  A    between atoms: _413  and  _414
REMARK  168  A    between atoms: _413  and  _416
REMARK  169  A    between atoms: _416  and  _417
REMARK  170  A    between atoms: _420  and  _422
REMARK  171  A    between atoms: _422  and  _423
REMARK  172  A    between atoms: _425  and  _427
REMARK  173  A    between atoms: _427  and  _428
REMARK  174  A    between atoms: _427  and  _430
REMARK  175  A    between atoms: _433  and  _435
REMARK  176  A    between atoms: _435  and  _436
REMARK  177  A    between atoms: _438  and  _440
REMARK  178  A    between atoms: _440  and  _441
REMARK  179  A    between atoms: _440  and  _443
REMARK  180  A    between atoms: _443  and  _444
REMARK  181  A    between atoms: _447  and  _449
REMARK  182  A    between atoms: _449  and  _450
REMARK  183  A    between atoms: _449  and  _452
REMARK  184  A    between atoms: _452  and  _453
REMARK  185  A    between atoms: _458  and  _460
REMARK  186  A    between atoms: _460  and  _461
REMARK  187  A    between atoms: _460  and  _463
REMARK  188  A    between atoms: _466  and  _468
REMARK  189  A    between atoms: _468  and  _469
REMARK  190  A    between atoms: _468  and  _471
REMARK  191  A    between atoms: _471  and  _472
REMARK  192  A    between atoms: _472  and  _473
REMARK  193  A    between atoms: _478  and  _480
REMARK  194  A    between atoms: _480  and  _481
REMARK  195  A    between atoms: _485  and  _486
REMARK  196  A    between atoms: _491  and  _493
REMARK  197  A    between atoms: _493  and  _494
REMARK  198  A    between atoms: _493  and  _496
REMARK  199  A    between atoms: _496  and  _497
REMARK  200  A    between atoms: _497  and  _498
REMARK  201  A    between atoms: _501  and  _503
REMARK  202  A    between atoms: _503  and  _504
REMARK  203  A    between atoms: _503  and  _506
REMARK  204  A    between atoms: _509  and  _511
REMARK  205  A    between atoms: _511  and  _512
REMARK  206  A    between atoms: _511  and  _514
REMARK  207  A    between atoms: _514  and  _515
REMARK  208  A    between atoms: _519  and  _520
REMARK  209  A    between atoms: _525  and  _527
REMARK  210  A    between atoms: _527  and  _528
REMARK  211  A    between atoms: _527  and  _530
REMARK  212  A    between atoms: _530  and  _531
REMARK  213  A    between atoms: _534  and  _536
REMARK  214  A    between atoms: _536  and  _537
REMARK  215  A    between atoms: _540  and  _542
REMARK  216  A    between atoms: _542  and  _543
REMARK  217  A    between atoms: _542  and  _545
REMARK  218  A    between atoms: _545  and  _546
REMARK  219  A    between atoms: _549  and  _551
REMARK  220  A    between atoms: _551  and  _552
REMARK  221  A    between atoms: _551  and  _554
REMARK  222  A    between atoms: _554  and  _555
REMARK  223  A    between atoms: _557  and  _559
REMARK  224  A    between atoms: _559  and  _560
REMARK  225  A    between atoms: _562  and  _564
REMARK  226  A    between atoms: _564  and  _565
REMARK  227  A    between atoms: _564  and  _567
REMARK  228  A    between atoms: _567  and  _568
REMARK  229  A    between atoms: _571  and  _573
REMARK  230  A    between atoms: _573  and  _574
REMARK  231  A    between atoms: _573  and  _576
REMARK                            x       y       z     vdW  Elec       q    Type
REMARK                         _______ _______ _______ _____ _____    ______ ____
ROOT
ATOM      1  C   ASN A   2     -10.112  -9.066   6.159  0.00  0.00    +0.241 C 
ATOM      2  O   ASN A   2      -9.315  -8.635   6.992  0.00  0.00    -0.273 OA
ATOM      3  N   ASP A   3     -11.220  -8.422   5.822  0.00  0.00    -0.297 N 
ATOM      4  H   ASP A   3     -11.818  -8.800   5.060  0.00  0.00    +0.150 HD
ENDROOT
BRANCH   1   5
ATOM      5  CA  ASN A   2      -9.882 -10.406   5.466  0.00  0.00    +0.158 C 
BRANCH   5   7
ATOM      6  C   PRO A   1     -10.423 -10.877   3.138  0.00  0.00    +0.239 C 
ATOM      7  N   ASN A   2      -9.615 -10.316   4.034  0.00  0.00    -0.297 N 
ATOM      8  H   ASN A   2      -8.773  -9.801   3.706  0.00  0.00    +0.150 HD
ATOM      9  O   PRO A   1     -11.476 -11.445   3.432  0.00  0.00    -0.274 OA
BRANCH   6  11
ATOM     10  N   PRO A   1      -9.892  -9.418   1.188  0.00  0.00    -0.210 NA
ATOM     11  CA  PRO A   1      -9.991 -10.795   1.680  0.00  0.00    +0.149 C 
ATOM     12  CB  PRO A   1      -8.560 -11.336   1.518  0.00  0.00    +0.028 C 
ATOM     13  CG  PRO A   1      -7.726 -10.180   1.006  0.00  0.00    +0.021 C 
ATOM     14  CD  PRO A   1      -8.507  -8.933   1.244  0.00  0.00    +0.089 C 
ENDBRANCH   6  11
ENDBRANCH   5   7
BRANCH   5  15
ATOM     15  CB  ASN A   2      -8.740 -11.149   6.161  0.00  0.00    +0.114 C 
BRANCH  15  16
ATOM     16  CG  ASN A   2      -8.986 -12.640   6.235  0.00  0.00    +0.222 C 
ATOM     17  OD1 ASN A   2      -8.052 -13.434   6.334  0.00  0.00    -0.275 OA
ATOM     18  ND2 ASN A   2     -10.254 -13.028   6.176  0.00  0.00    -0.329 N 
ATOM     19 HD21 ASN A   2     -10.490 -14.040   6.213  0.00  0.00    +0.145 HD
ATOM     20 HD22 ASN A   2     -11.011 -12.320   6.092  0.00  0.00    +0.145 HD
ENDBRANCH  15  16
ENDBRANCH   5  15
ENDBRANCH   1   5
BRANCH   3  21
ATOM     21  CA  ASP A   3     -11.615  -7.197   6.498  0.00  0.00    +0.160 C 
BRANCH  21  22
ATOM     22  C   ASP A   3     -13.026  -7.334   7.033  0.00  0.00    +0.241 C 
ATOM     23  N   VAL A   4     -13.180  -7.166   8.341  0.00  0.00    -0.298 N 
ATOM     24  H   VAL A   4     -12.338  -7.075   8.945  0.00  0.00    +0.150 HD
ATOM     25  O   ASP A   3     -13.956  -7.599   6.274  0.00  0.00    -0.273 OA
BRANCH  23  26
ATOM     26  CA  VAL A   4     -14.501  -7.106   8.946  0.00  0.00    +0.137 C 
BRANCH  26  27
ATOM     27  CB  VAL A   4     -14.522  -7.725  10.356  0.00  0.00    +0.026 C 
ATOM     28  CG2 VAL A   4     -15.918  -7.641  10.947  0.00  0.00    +0.002 C 
ATOM     29  CG1 VAL A   4     -14.048  -9.172  10.310  0.00  0.00    +0.002 C 
ENDBRANCH  26  27
BRANCH  26  30
ATOM     30  C   VAL A   4     -14.928  -5.645   9.001  0.00  0.00    +0.227 C 
ATOM     31  O   VAL A   4     -14.340  -4.847   9.731  0.00  0.00    -0.286 OA
ENDBRANCH  26  30
ENDBRANCH  23  26
ENDBRANCH  21  22
BRANCH  21  32
ATOM     32  CB  ASP A   3     -11.528  -5.996   5.558  0.00  0.00    +0.143 C 
BRANCH  32  33
ATOM     33  CG  ASP A   3     -10.121  -5.451   5.432  0.00  0.00    +0.367 C 
ATOM     34  OD2 ASP A   3      -9.158  -6.201   5.697  0.00  0.00    -0.246 OA
ATOM     35  OD1 ASP A   3      -9.978  -4.268   5.062  0.00  0.00    -0.246 OA
ENDBRANCH  32  33
ENDBRANCH  21  32
ENDBRANCH   3  21
TORSDOF 12
REMARK  Name = ../refined-set-2016/4xu2/4xu2_pocket.pdb
REMARK  231 active torsions:
REMARK  status: ('A' for Active; 'I' for Inactive)
REMARK    1  A    between atoms: _1  and  _3
REMARK    2  A    between atoms: _3  and  _4
REMARK    3  A    between atoms: _3  and  _6
REMARK    4  A    between atoms: _6  and  _7
REMARK    5  A    between atoms: _10  and  _12
REMARK    6  A    between atoms: _12  and  _13
REMARK    7  A    between atoms: _15  and  _17
REMARK    8  A    between atoms: _17  and  _18
REMARK    9  A    between atoms: _17  and  _20
REMARK   10  A    between atoms: _20  and  _21
REMARK   11  A    between atoms: _23  and  _25
REMARK   12  A    between atoms: _25  and  _26
REMARK   13  A    between atoms: _25  and  _28
REMARK   14  A    between atoms: _28  and  _29
REMARK   15  A    between atoms: _32  and  _34
REMARK   16  A    between atoms: _34  and  _35
REMARK   17  A    between atoms: _34  and  _37
REMARK   18  A    between atoms: _37  and  _38
REMARK   19  A    between atoms: _43  and  _45
REMARK   20  A    between atoms: _45  and  _46
REMARK   21  A    between atoms: _49  and  _51
REMARK   22  A    between atoms: _51  and  _52
REMARK   23  A    between atoms: _51  and  _54
REMARK   24  A    between atoms: _54  and  _55
REMARK   25  A    between atoms: _58  and  _60
REMARK   26  A    between atoms: _60  and  _61
REMARK   27  A    between atoms: _60  and  _63
REMARK   28  A    between atoms: _63  and  _64
REMARK   29  A    between atoms: _67  and  _69
REMARK   30  A    between atoms: _69  and  _70
REMARK   31  A    between atoms: _69  and  _72
REMARK   32  A    between atoms: _72  and  _73
REMARK   33  A    between atoms: _76  and  _78
REMARK   34  A    between atoms: _78  and  _79
REMARK   35  A    between atoms: _82  and  _84
REMARK   36  A    between atoms: _84  and  _85
REMARK   37  A    between atoms: _84  and  _87
REMARK   38  A    between atoms: _87  and  _88
REMARK   39  A    between atoms: _88  and  _89
REMARK   40  A    between atoms: _94  and  _96
REMARK   41  A    between atoms: _96  and  _97
REMARK   42  A    between atoms: _96  and  _99
REMARK   43  A    between atoms: _99  and  _100
REMARK   44  A    between atoms: _103  and  _105
REMARK   45  A    between atoms: _105  and  _106
REMARK   46  A    between atoms: _109  and  _111
REMARK   47  A    between atoms: _111  and  _112
REMARK   48  A    between atoms: _114  and  _116
REMARK   49  A    between atoms: _116  and  _117
REMARK   50  A    between atoms: _116  and  _119
REMARK   51  A    between atoms: _119  and  _120
REMARK   52  A    between atoms: _120  and  _121
REMARK   53  A    between atoms: _121  and  _122
REMARK   54  A    between atoms: _131  and  _133
REMARK   55  A    between atoms: _133  and  _134
REMARK   56  A    between atoms: _136  and  _138
REMARK   57  A    between atoms: _138  and  _139
REMARK   58  A    between atoms: _138  and  _141
REMARK   59  A    between atoms: _141  and  _142
REMARK   60  A    between atoms: _142  and  _143
REMARK   61  A    between atoms: _143  and  _144
REMARK   62  A    between atoms: _153  and  _155
REMARK   63  A    between atoms: _155  and  _156
REMARK   64  A    between atoms: _155  and  _158
REMARK   65  A    between atoms: _158  and  _159
REMARK   66  A    between atoms: _164  and  _166
REMARK   67  A    between atoms: _166  and  _167
REMARK   68  A    between atoms: _169  and  _171
REMARK   69  A    between atoms: _171  and  _172
REMARK   70  A    between atoms: _171  and  _174
REMARK   71  A    between atoms: _174  and  _175
REMARK   72  A    between atoms: _175  and  _176
REMARK   73  A    between atoms: _176  and  _177
REMARK   74  A    between atoms: _186  and  _188
REMARK   75  A    between atoms: _188  and  _189
REMARK   76  A    between atoms: _191  and  _193
REMARK   77  A    between atoms: _193  and  _194
REMARK   78  A    between atoms: _193  and  _196
REMARK   79  A    between atoms: _196  and  _197
REMARK   80  A    between atoms: _207  and  _209
REMARK   81  A    between atoms: _209  and  _210
REMARK   82  A    between atoms: _213  and  _215
REMARK   83  A    between atoms: _215  and  _216
REMARK   84  A    between atoms: _219  and  _221
REMARK   85  A    between atoms: _221  and  _222
REMARK   86  A    between atoms: _221  and  _224
REMARK   87  A    between atoms: _224  and  _225
REMARK   88  A    between atoms: _228  and  _230
REMARK   89  A    between atoms: _230  and  _231
REMARK   90  A    between atoms: _230  and  _233
REMARK   91  A    between atoms: _233  and  _234
REMARK   92  A    between atoms: _234  and  _235
REMARK   93  A    between atoms: _240  and  _242
REMARK   94  A    between atoms: _242  and  _243
REMARK   95  A    between atoms: _242  and  _245
REMARK   96  A    between atoms: _245  and  _246
REMARK   97  A    between atoms: _249  and  _251
REMARK   98  A    between atoms: _251  and  _252
REMARK   99  A    between atoms: _251  and  _254
REMARK  100  A    between atoms: _254  and  _255
REMARK  101  A    between atoms: _258  and  _260
REMARK  102  A    between atoms: _260  and  _261
REMARK  103  A    between atoms: _260  and  _263
REMARK  104  A    between atoms: _263  and  _264
REMARK  105  A    between atoms: _267  and  _269
REMARK  106  A    between atoms: _269  and  _270
REMARK  107  A    between atoms: _269  and  _272
REMARK  108  A    between atoms: _272  and  _273
REMARK  109  A    between atoms: _275  and  _277
REMARK  110  A    between atoms: _277  and  _278
REMARK  111  A    between atoms: _277  and  _280
REMARK  112  A    between atoms: _283  and  _285
REMARK  113  A    between atoms: _285  and  _286
REMARK  114  A    between atoms: _285  and  _288
REMARK  115  A    between atoms: _288  and  _289
REMARK  116  A    between atoms: _289  and  _290
REMARK  117  A    between atoms: _290  and  _291
REMARK  118  A    between atoms: _291  and  _292
REMARK  119  A    between atoms: _297  and  _298
REMARK  120  A    between atoms: _303  and  _305
REMARK  121  A    between atoms: _305  and  _306
REMARK  122  A    between atoms: _305  and  _308
REMARK  123  A    between atoms: _308  and  _309
REMARK  124  A    between atoms: _314  and  _316
REMARK  125  A    between atoms: _316  and  _317
REMARK  126  A    between atoms: _316  and  _319
REMARK  127  A    between atoms: _319  and  _320
REMARK  128  A    between atoms: _323  and  _325
REMARK  129  A    between atoms: _325  and  _326
REMARK  130  A    between atoms: _325  and  _328
REMARK  131  A    between atoms: _331  and  _333
REMARK  132  A    between atoms: _333  and  _334
REMARK  133  A    between atoms: _336  and  _338
REMARK  134  A    between atoms: _338  and  _339
REMARK  135  A    between atoms: _338  and  _341
REMARK  136  A    between atoms: _341  and  _342
REMARK  137  A    between atoms: _342  and  _343
REMARK  138  A    between atoms: _343  and  _344
REMARK  139  A    between atoms: _344  and  _345
REMARK  140  A    between atoms: _349  and  _351
REMARK  141  A    between atoms: _351  and  _352
REMARK  142  A    between atoms: _351  and  _354
REMARK  143  A    between atoms: _354  and  _355
REMARK  144  A    between atoms: _358  and  _360
REMARK  145  A    between atoms: _360  and  _361
REMARK  146  A    between atoms: _364  and  _366
REMARK  147  A    between atoms: _366  and  _367
REMARK  148  A    between atoms: _369  and  _371
REMARK  149  A    between atoms: _371  and  _372
REMARK  150  A    between atoms: _371  and  _374
REMARK  151  A    between atoms: _374  and  _375
REMARK  152  A    between atoms: _378  and  _380
REMARK  153  A    between atoms: _380  and  _381
REMARK  154  A    between atoms: _380  and  _383
REMARK  155  A    between atoms: _383  and  _384
REMARK  156  A    between atoms: _387  and  _389
REMARK  157  A    between atoms: _389  and  _390
REMARK  158  A    between atoms: _393  and  _395
REMARK  159  A    between atoms: _395  and  _396
REMARK  160  A    between atoms: _395  and  _398
REMARK  161  A    between atoms: _398  and  _399
REMARK  162  A    between atoms: _399  and  _400
REMARK  163  A    between atoms: _403  and  _405
REMARK  164  A    between atoms: _405  and  _406
REMARK  165  A    between atoms: _405  and  _408
REMARK  166  A    between atoms: _411  and  _413
REMARK  167  A    between atoms: _413  and  _414
REMARK  168  A    between atoms: _413  and  _416
REMARK  169  A    between atoms: _416  and  _417
REMARK  170  A    between atoms: _420  and  _422
REMARK  171  A    between atoms: _422  and  _423
REMARK  172  A    between atoms: _425  and  _427
REMARK  173  A    between atoms: _427  and  _428
REMARK  174  A    between atoms: _427  and  _430
REMARK  175  A    between atoms: _433  and  _435
REMARK  176  A    between atoms: _435  and  _436
REMARK  177  A    between atoms: _438  and  _440
REMARK  178  A    between atoms: _440  and  _441
REMARK  179  A    between atoms: _440  and  _443
REMARK  180  A    between atoms: _443  and  _444
REMARK  181  A    between atoms: _447  and  _449
REMARK  182  A    between atoms: _449  and  _450
REMARK  183  A    between atoms: _449  and  _452
REMARK  184  A    between atoms: _452  and  _453
REMARK  185  A    between atoms: _458  and  _460
REMARK  186  A    between atoms: _460  and  _461
REMARK  187  A    between atoms: _460  and  _463
REMARK  188  A    between atoms: _466  and  _468
REMARK  189  A    between atoms: _468  and  _469
REMARK  190  A    between atoms: _468  and  _471
REMARK  191  A    between atoms: _471  and  _472
REMARK  192  A    between atoms: _472  and  _473
REMARK  193  A    between atoms: _478  and  _480
REMARK  194  A    between atoms: _480  and  _481
REMARK  195  A    between atoms: _485  and  _486
REMARK  196  A    between atoms: _491  and  _493
REMARK  197  A    between atoms: _493  and  _494
REMARK  198  A    between atoms: _493  and  _496
REMARK  199  A    between atoms: _496  and  _497
REMARK  200  A    between atoms: _497  and  _498
REMARK  201  A    between atoms: _501  and  _503
REMARK  202  A    between atoms: _503  and  _504
REMARK  203  A    between atoms: _503  and  _506
REMARK  204  A    between atoms: _509  and  _511
REMARK  205  A    between atoms: _511  and  _512
REMARK  206  A    between atoms: _511  and  _514
REMARK  207  A    between atoms: _514  and  _515
REMARK  208  A    between atoms: _519  and  _520
REMARK  209  A    between atoms: _525  and  _527
REMARK  210  A    between atoms: _527  and  _528
REMARK  211  A    between atoms: _527  and  _530
REMARK  212  A    between atoms: _530  and  _531
REMARK  213  A    between atoms: _534  and  _536
REMARK  214  A    between atoms: _536  and  _537
REMARK  215  A    between atoms: _540  and  _542
REMARK  216  A    between atoms: _542  and  _543
REMARK  217  A    between atoms: _542  and  _545
REMARK  218  A    between atoms: _545  and  _546
REMARK  219  A    between atoms: _549  and  _551
REMARK  220  A    between atoms: _551  and  _552
REMARK  221  A    between atoms: _551  and  _554
REMARK  222  A    between atoms: _554  and  _555
REMARK  223  A    between atoms: _557  and  _559
REMARK  224  A    between atoms: _559  and  _560
REMARK  225  A    between atoms: _562  and  _564
REMARK  226  A    between atoms: _564  and  _565
REMARK  227  A    between atoms: _564  and  _567
REMARK  228  A    between atoms: _567  and  _568
REMARK  229  A    between atoms: _571  and  _573
REMARK  230  A    between atoms: _573  and  _574
REMARK  231  A    between atoms: _573  and  _576
REMARK                            x       y       z     vdW  Elec       q    Type
REMARK                         _______ _______ _______ _____ _____    ______ ____
ROOT
ATOM      1  CA  GLY A   5      -8.170  -7.313  10.480  0.00  0.00    +0.176 C 
ENDROOT
BRANCH   1   3
ATOM      2  C   ALA A   4     -10.318  -6.507  11.294  0.00  0.00    +0.241 C 
ATOM      3  N   GLY A   5      -9.074  -6.904  11.539  0.00  0.00    -0.295 N 
ATOM      4  H   GLY A   5      -8.737  -6.922  12.523  0.00  0.00    +0.150 HD
ATOM      5  O   ALA A   4     -10.781  -6.400  10.158  0.00  0.00    -0.273 OA
BRANCH   2   6
ATOM      6  CA  ALA A   4     -11.166  -6.184  12.520  0.00  0.00    +0.149 C 
ATOM      7  CB  ALA A   4     -11.851  -7.446  13.031  0.00  0.00    +0.031 C 
BRANCH   6  10
ATOM      8  C   LEU A   3     -12.604  -4.344  13.199  0.00  0.00    +0.241 C 
ATOM      9  O   LEU A   3     -12.205  -4.401  14.364  0.00  0.00    -0.273 OA
ATOM     10  N   ALA A   4     -12.155  -5.149  12.241  0.00  0.00    -0.297 N 
ATOM     11  H   ALA A   4     -12.517  -5.038  11.272  0.00  0.00    +0.150 HD
BRANCH   8  12
ATOM     12  CA  LEU A   3     -13.659  -3.322  12.786  0.00  0.00    +0.149 C 
BRANCH  12  15
ATOM     13  C   LYS A   2     -12.618  -1.867  11.118  0.00  0.00    +0.241 C 
ATOM     14  O   LYS A   2     -11.918  -1.294  11.953  0.00  0.00    -0.273 OA
ATOM     15  N   LEU A   3     -13.453  -2.856  11.419  0.00  0.00    -0.297 N 
ATOM     16  H   LEU A   3     -13.980  -3.316  10.650  0.00  0.00    +0.150 HD
BRANCH  13  17
ATOM     17  CA  LYS A   2     -12.568  -1.467   9.647  0.00  0.00    +0.149 C 
BRANCH  17  19
ATOM     18  C   GLY A   1     -14.525  -0.070   9.292  0.00  0.00    +0.240 C 
ATOM     19  N   LYS A   2     -13.208  -0.173   9.439  0.00  0.00    -0.297 N 
ATOM     20  H   LYS A   2     -12.622   0.686   9.405  0.00  0.00    +0.150 HD
ATOM     21  O   GLY A   1     -15.278  -1.043   9.319  0.00  0.00    -0.274 OA
BRANCH  18  22
ATOM     22  CA  GLY A   1     -15.073   1.330   9.091  0.00  0.00    +0.169 C 
BRANCH  22  23
ATOM     23  N   GLY A   1     -16.336   1.357   8.376  0.00  0.00    -0.236 NA
ATOM     24  H   GLY A   1     -17.225   1.285   8.912  0.00  0.00    +0.142 HD
ENDBRANCH  22  23
ENDBRANCH  18  22
ENDBRANCH  17  19
BRANCH  17  25
ATOM     25  CB  LYS A   2     -11.120  -1.445   9.153  0.00  0.00    +0.029 C 
BRANCH  25  26
ATOM     26  CG  LYS A   2     -10.423  -2.795   9.245  0.00  0.00    +0.000 C 
BRANCH  26  27
ATOM     27  CD  LYS A   2      -9.134  -2.816   8.438  0.00  0.00    -0.024 C 
BRANCH  27  28
ATOM     28  CE  LYS A   2      -8.524  -4.209   8.421  0.00  0.00    -0.086 C 
BRANCH  28  29
ATOM     29  NZ  LYS A   2      -7.352  -4.297   7.507  0.00  0.00    +0.380 N 
ATOM     30  HZ1 LYS A   2      -6.620  -3.626   7.818  0.00  0.00    -0.089 HD
ATOM     31  HZ2 LYS A   2      -6.969  -5.264   7.528  0.00  0.00    -0.089 HD
ATOM     32  HZ3 LYS A   2      -7.651  -4.062   6.539  0.00  0.00    -0.089 HD
ENDBRANCH  28  29
ENDBRANCH  27  28
ENDBRANCH  26  27
ENDBRANCH  25  26
ENDBRANCH  17  25
ENDBRANCH  13  17
ENDBRANCH  12  15
BRANCH  12  33
ATOM     33  CB  LEU A   3     -15.063  -3.920  12.929  0.00  0.00    +0.029 C 
BRANCH  33  34
ATOM     34  CG  LEU A   3     -15.457  -4.557  14.263  0.00  0.00    +0.002 C 
ATOM     35  CD2 LEU A   3     -15.354  -3.552  15.398  0.00  0.00    +0.000 C 
ATOM     36  CD1 LEU A   3     -16.865  -5.126  14.176  0.00  0.00    +0.000 C 
ENDBRANCH  33  34
ENDBRANCH  12  33
ENDBRANCH   8  12
ENDBRANCH   6  10
ENDBRANCH   2   6
ENDBRANCH   1   3
BRANCH   1  37
ATOM     37  C   GLY A   5      -7.564  -8.665  10.798  0.00  0.00    +0.243 C 
ATOM     38  O   GLY A   5      -7.290  -8.971  11.959  0.00  0.00    -0.273 OA
ATOM     39  N   ILE A   6      -7.356  -9.477   9.768  0.00  0.00    -0.297 N 
ATOM     40  H   ILE A   6      -7.552  -9.138   8.805  0.00  0.00    +0.150 HD
BRANCH  39  41
ATOM     41  CA  ILE A   6      -6.858 -10.834   9.959  0.00  0.00    +0.149 C 
BRANCH  41  42
ATOM     42  C   ILE A   6      -5.606 -11.091   9.123  0.00  0.00    +0.241 C 
ATOM     43  N   LEU A   7      -4.593 -11.684   9.749  0.00  0.00    -0.297 N 
ATOM     44  H   LEU A   7      -4.689 -11.918  10.758  0.00  0.00    +0.150 HD
ATOM     45  O   ILE A   6      -5.557 -10.754   7.940  0.00  0.00    -0.273 OA
BRANCH  43  46
ATOM     46  CA  LEU A   7      -3.353 -12.015   9.059  0.00  0.00    +0.149 C 
BRANCH  46  47
ATOM     47  C   LEU A   7      -3.021 -13.496   9.205  0.00  0.00    +0.241 C 
ATOM     48  O   LEU A   7      -2.941 -14.019  10.316  0.00  0.00    -0.273 OA
ATOM     49  N   ALA A   8      -2.831 -14.164   8.072  0.00  0.00    -0.297 N 
ATOM     50  H   ALA A   8      -2.949 -13.668   7.166  0.00  0.00    +0.150 HD
BRANCH  49  51
ATOM     51  CA  ALA A   8      -2.462 -15.574   8.066  0.00  0.00    +0.149 C 
ATOM     52  CB  ALA A   8      -3.430 -16.373   7.208  0.00  0.00    +0.031 C 
BRANCH  51  53
ATOM     53  C   ALA A   8      -1.035 -15.745   7.564  0.00  0.00    +0.241 C 
ATOM     54  N   GLU A   9      -0.223 -16.467   8.329  0.00  0.00    -0.298 N 
ATOM     55  H   GLU A   9      -0.591 -16.888   9.206  0.00  0.00    +0.150 HD
ATOM     56  O   ALA A   8      -0.674 -15.227   6.507  0.00  0.00    -0.273 OA
BRANCH  54  57
ATOM     57  CA  GLU A   9       1.173 -16.682   7.966  0.00  0.00    +0.137 C 
BRANCH  57  58
ATOM     58  C   GLU A   9       1.536 -18.162   8.023  0.00  0.00    +0.227 C 
ATOM     59  O   GLU A   9       1.024 -18.909   8.858  0.00  0.00    -0.286 OA
ENDBRANCH  57  58
BRANCH  57  60
ATOM     60  CB  GLU A   9       2.095 -15.870   8.879  0.00  0.00    +0.039 C 
BRANCH  60  61
ATOM     61  CG  GLU A   9       1.875 -14.366   8.792  0.00  0.00    +0.116 C 
BRANCH  61  62
ATOM     62  CD  GLU A   9       2.866 -13.578   9.625  0.00  0.00    +0.365 C 
ATOM     63  OE2 GLU A   9       2.564 -13.298  10.805  0.00  0.00    -0.246 OA
ATOM     64  OE1 GLU A   9       3.944 -13.234   9.098  0.00  0.00    -0.246 OA
ENDBRANCH  61  62
ENDBRANCH  60  61
ENDBRANCH  57  60
ENDBRANCH  54  57
ENDBRANCH  51  53
ENDBRANCH  49  51
ENDBRANCH  46  47
BRANCH  46  65
ATOM     65  CB  LEU A   7      -2.198 -11.165   9.592  0.00  0.00    +0.029 C 
BRANCH  65  66
ATOM     66  CG  LEU A   7      -0.812 -11.459   9.014  0.00  0.00    +0.002 C 
ATOM     67  CD2 LEU A   7       0.256 -10.672   9.756  0.00  0.00    +0.000 C 
ATOM     68  CD1 LEU A   7      -0.775 -11.149   7.527  0.00  0.00    +0.000 C 
ENDBRANCH  65  66
ENDBRANCH  46  65
ENDBRANCH  43  46
ENDBRANCH  41  42
BRANCH  41  69
ATOM     69  CB  ILE A   6      -7.941 -11.885   9.608  0.00  0.00    +0.027 C 
ATOM     70  CG2 ILE A   6      -7.351 -13.286   9.566  0.00  0.00    +0.002 C 
BRANCH  69  71
ATOM     71  CG1 ILE A   6      -9.090 -11.840  10.620  0.00  0.00    +0.002 C 
ATOM     72  CD1 ILE A   6     -10.233 -10.932  10.223  0.00  0.00    +0.000 C 
ENDBRANCH  69  71
ENDBRANCH  41  69
ENDBRANCH  39  41
ENDBRANCH   1  37
TORSDOF 32
REMARK  Name = ../refined-set-2016/4xu2/4xu2_pocket.pdb
REMARK  231 active torsions:
REMARK  status: ('A' for Active; 'I' for Inactive)
REMARK    1  A    between atoms: _1  and  _3
REMARK    2  A    between atoms: _3  and  _4
REMARK    3  A    between atoms: _3  and  _6
REMARK    4  A    between atoms: _6  and  _7
REMARK    5  A    between atoms: _10  and  _12
REMARK    6  A    between atoms: _12  and  _13
REMARK    7  A    between atoms: _15  and  _17
REMARK    8  A    between atoms: _17  and  _18
REMARK    9  A    between atoms: _17  and  _20
REMARK   10  A    between atoms: _20  and  _21
REMARK   11  A    between atoms: _23  and  _25
REMARK   12  A    between atoms: _25  and  _26
REMARK   13  A    between atoms: _25  and  _28
REMARK   14  A    between atoms: _28  and  _29
REMARK   15  A    between atoms: _32  and  _34
REMARK   16  A    between atoms: _34  and  _35
REMARK   17  A    between atoms: _34  and  _37
REMARK   18  A    between atoms: _37  and  _38
REMARK   19  A    between atoms: _43  and  _45
REMARK   20  A    between atoms: _45  and  _46
REMARK   21  A    between atoms: _49  and  _51
REMARK   22  A    between atoms: _51  and  _52
REMARK   23  A    between atoms: _51  and  _54
REMARK   24  A    between atoms: _54  and  _55
REMARK   25  A    between atoms: _58  and  _60
REMARK   26  A    between atoms: _60  and  _61
REMARK   27  A    between atoms: _60  and  _63
REMARK   28  A    between atoms: _63  and  _64
REMARK   29  A    between atoms: _67  and  _69
REMARK   30  A    between atoms: _69  and  _70
REMARK   31  A    between atoms: _69  and  _72
REMARK   32  A    between atoms: _72  and  _73
REMARK   33  A    between atoms: _76  and  _78
REMARK   34  A    between atoms: _78  and  _79
REMARK   35  A    between atoms: _82  and  _84
REMARK   36  A    between atoms: _84  and  _85
REMARK   37  A    between atoms: _84  and  _87
REMARK   38  A    between atoms: _87  and  _88
REMARK   39  A    between atoms: _88  and  _89
REMARK   40  A    between atoms: _94  and  _96
REMARK   41  A    between atoms: _96  and  _97
REMARK   42  A    between atoms: _96  and  _99
REMARK   43  A    between atoms: _99  and  _100
REMARK   44  A    between atoms: _103  and  _105
REMARK   45  A    between atoms: _105  and  _106
REMARK   46  A    between atoms: _109  and  _111
REMARK   47  A    between atoms: _111  and  _112
REMARK   48  A    between atoms: _114  and  _116
REMARK   49  A    between atoms: _116  and  _117
REMARK   50  A    between atoms: _116  and  _119
REMARK   51  A    between atoms: _119  and  _120
REMARK   52  A    between atoms: _120  and  _121
REMARK   53  A    between atoms: _121  and  _122
REMARK   54  A    between atoms: _131  and  _133
REMARK   55  A    between atoms: _133  and  _134
REMARK   56  A    between atoms: _136  and  _138
REMARK   57  A    between atoms: _138  and  _139
REMARK   58  A    between atoms: _138  and  _141
REMARK   59  A    between atoms: _141  and  _142
REMARK   60  A    between atoms: _142  and  _143
REMARK   61  A    between atoms: _143  and  _144
REMARK   62  A    between atoms: _153  and  _155
REMARK   63  A    between atoms: _155  and  _156
REMARK   64  A    between atoms: _155  and  _158
REMARK   65  A    between atoms: _158  and  _159
REMARK   66  A    between atoms: _164  and  _166
REMARK   67  A    between atoms: _166  and  _167
REMARK   68  A    between atoms: _169  and  _171
REMARK   69  A    between atoms: _171  and  _172
REMARK   70  A    between atoms: _171  and  _174
REMARK   71  A    between atoms: _174  and  _175
REMARK   72  A    between atoms: _175  and  _176
REMARK   73  A    between atoms: _176  and  _177
REMARK   74  A    between atoms: _186  and  _188
REMARK   75  A    between atoms: _188  and  _189
REMARK   76  A    between atoms: _191  and  _193
REMARK   77  A    between atoms: _193  and  _194
REMARK   78  A    between atoms: _193  and  _196
REMARK   79  A    between atoms: _196  and  _197
REMARK   80  A    between atoms: _207  and  _209
REMARK   81  A    between atoms: _209  and  _210
REMARK   82  A    between atoms: _213  and  _215
REMARK   83  A    between atoms: _215  and  _216
REMARK   84  A    between atoms: _219  and  _221
REMARK   85  A    between atoms: _221  and  _222
REMARK   86  A    between atoms: _221  and  _224
REMARK   87  A    between atoms: _224  and  _225
REMARK   88  A    between atoms: _228  and  _230
REMARK   89  A    between atoms: _230  and  _231
REMARK   90  A    between atoms: _230  and  _233
REMARK   91  A    between atoms: _233  and  _234
REMARK   92  A    between atoms: _234  and  _235
REMARK   93  A    between atoms: _240  and  _242
REMARK   94  A    between atoms: _242  and  _243
REMARK   95  A    between atoms: _242  and  _245
REMARK   96  A    between atoms: _245  and  _246
REMARK   97  A    between atoms: _249  and  _251
REMARK   98  A    between atoms: _251  and  _252
REMARK   99  A    between atoms: _251  and  _254
REMARK  100  A    between atoms: _254  and  _255
REMARK  101  A    between atoms: _258  and  _260
REMARK  102  A    between atoms: _260  and  _261
REMARK  103  A    between atoms: _260  and  _263
REMARK  104  A    between atoms: _263  and  _264
REMARK  105  A    between atoms: _267  and  _269
REMARK  106  A    between atoms: _269  and  _270
REMARK  107  A    between atoms: _269  and  _272
REMARK  108  A    between atoms: _272  and  _273
REMARK  109  A    between atoms: _275  and  _277
REMARK  110  A    between atoms: _277  and  _278
REMARK  111  A    between atoms: _277  and  _280
REMARK  112  A    between atoms: _283  and  _285
REMARK  113  A    between atoms: _285  and  _286
REMARK  114  A    between atoms: _285  and  _288
REMARK  115  A    between atoms: _288  and  _289
REMARK  116  A    between atoms: _289  and  _290
REMARK  117  A    between atoms: _290  and  _291
REMARK  118  A    between atoms: _291  and  _292
REMARK  119  A    between atoms: _297  and  _298
REMARK  120  A    between atoms: _303  and  _305
REMARK  121  A    between atoms: _305  and  _306
REMARK  122  A    between atoms: _305  and  _308
REMARK  123  A    between atoms: _308  and  _309
REMARK  124  A    between atoms: _314  and  _316
REMARK  125  A    between atoms: _316  and  _317
REMARK  126  A    between atoms: _316  and  _319
REMARK  127  A    between atoms: _319  and  _320
REMARK  128  A    between atoms: _323  and  _325
REMARK  129  A    between atoms: _325  and  _326
REMARK  130  A    between atoms: _325  and  _328
REMARK  131  A    between atoms: _331  and  _333
REMARK  132  A    between atoms: _333  and  _334
REMARK  133  A    between atoms: _336  and  _338
REMARK  134  A    between atoms: _338  and  _339
REMARK  135  A    between atoms: _338  and  _341
REMARK  136  A    between atoms: _341  and  _342
REMARK  137  A    between atoms: _342  and  _343
REMARK  138  A    between atoms: _343  and  _344
REMARK  139  A    between atoms: _344  and  _345
REMARK  140  A    between atoms: _349  and  _351
REMARK  141  A    between atoms: _351  and  _352
REMARK  142  A    between atoms: _351  and  _354
REMARK  143  A    between atoms: _354  and  _355
REMARK  144  A    between atoms: _358  and  _360
REMARK  145  A    between atoms: _360  and  _361
REMARK  146  A    between atoms: _364  and  _366
REMARK  147  A    between atoms: _366  and  _367
REMARK  148  A    between atoms: _369  and  _371
REMARK  149  A    between atoms: _371  and  _372
REMARK  150  A    between atoms: _371  and  _374
REMARK  151  A    between atoms: _374  and  _375
REMARK  152  A    between atoms: _378  and  _380
REMARK  153  A    between atoms: _380  and  _381
REMARK  154  A    between atoms: _380  and  _383
REMARK  155  A    between atoms: _383  and  _384
REMARK  156  A    between atoms: _387  and  _389
REMARK  157  A    between atoms: _389  and  _390
REMARK  158  A    between atoms: _393  and  _395
REMARK  159  A    between atoms: _395  and  _396
REMARK  160  A    between atoms: _395  and  _398
REMARK  161  A    between atoms: _398  and  _399
REMARK  162  A    between atoms: _399  and  _400
REMARK  163  A    between atoms: _403  and  _405
REMARK  164  A    between atoms: _405  and  _406
REMARK  165  A    between atoms: _405  and  _408
REMARK  166  A    between atoms: _411  and  _413
REMARK  167  A    between atoms: _413  and  _414
REMARK  168  A    between atoms: _413  and  _416
REMARK  169  A    between atoms: _416  and  _417
REMARK  170  A    between atoms: _420  and  _422
REMARK  171  A    between atoms: _422  and  _423
REMARK  172  A    between atoms: _425  and  _427
REMARK  173  A    between atoms: _427  and  _428
REMARK  174  A    between atoms: _427  and  _430
REMARK  175  A    between atoms: _433  and  _435
REMARK  176  A    between atoms: _435  and  _436
REMARK  177  A    between atoms: _438  and  _440
REMARK  178  A    between atoms: _440  and  _441
REMARK  179  A    between atoms: _440  and  _443
REMARK  180  A    between atoms: _443  and  _444
REMARK  181  A    between atoms: _447  and  _449
REMARK  182  A    between atoms: _449  and  _450
REMARK  183  A    between atoms: _449  and  _452
REMARK  184  A    between atoms: _452  and  _453
REMARK  185  A    between atoms: _458  and  _460
REMARK  186  A    between atoms: _460  and  _461
REMARK  187  A    between atoms: _460  and  _463
REMARK  188  A    between atoms: _466  and  _468
REMARK  189  A    between atoms: _468  and  _469
REMARK  190  A    between atoms: _468  and  _471
REMARK  191  A    between atoms: _471  and  _472
REMARK  192  A    between atoms: _472  and  _473
REMARK  193  A    between atoms: _478  and  _480
REMARK  194  A    between atoms: _480  and  _481
REMARK  195  A    between atoms: _485  and  _486
REMARK  196  A    between atoms: _491  and  _493
REMARK  197  A    between atoms: _493  and  _494
REMARK  198  A    between atoms: _493  and  _496
REMARK  199  A    between atoms: _496  and  _497
REMARK  200  A    between atoms: _497  and  _498
REMARK  201  A    between atoms: _501  and  _503
REMARK  202  A    between atoms: _503  and  _504
REMARK  203  A    between atoms: _503  and  _506
REMARK  204  A    between atoms: _509  and  _511
REMARK  205  A    between atoms: _511  and  _512
REMARK  206  A    between atoms: _511  and  _514
REMARK  207  A    between atoms: _514  and  _515
REMARK  208  A    between atoms: _519  and  _520
REMARK  209  A    between atoms: _525  and  _527
REMARK  210  A    between atoms: _527  and  _528
REMARK  211  A    between atoms: _527  and  _530
REMARK  212  A    between atoms: _530  and  _531
REMARK  213  A    between atoms: _534  and  _536
REMARK  214  A    between atoms: _536  and  _537
REMARK  215  A    between atoms: _540  and  _542
REMARK  216  A    between atoms: _542  and  _543
REMARK  217  A    between atoms: _542  and  _545
REMARK  218  A    between atoms: _545  and  _546
REMARK  219  A    between atoms: _549  and  _551
REMARK  220  A    between atoms: _551  and  _552
REMARK  221  A    between atoms: _551  and  _554
REMARK  222  A    between atoms: _554  and  _555
REMARK  223  A    between atoms: _557  and  _559
REMARK  224  A    between atoms: _559  and  _560
REMARK  225  A    between atoms: _562  and  _564
REMARK  226  A    between atoms: _564  and  _565
REMARK  227  A    between atoms: _564  and  _567
REMARK  228  A    between atoms: _567  and  _568
REMARK  229  A    between atoms: _571  and  _573
REMARK  230  A    between atoms: _573  and  _574
REMARK  231  A    between atoms: _573  and  _576
REMARK                            x       y       z     vdW  Elec       q    Type
REMARK                         _______ _______ _______ _____ _____    ______ ____
ROOT
ATOM      1  C   VAL A   4      -6.754 -10.253  15.545  0.00  0.00    +0.241 C 
ATOM      2  O   VAL A   4      -6.395 -10.343  16.718  0.00  0.00    -0.273 OA
ATOM      3  N   GLY A   5      -7.008  -9.092  14.950  0.00  0.00    -0.295 N 
ATOM      4  H   GLY A   5      -7.206  -9.081  13.929  0.00  0.00    +0.150 HD
ENDROOT
BRANCH   3   5
ATOM      5  CA  GLY A   5      -7.018  -7.839  15.681  0.00  0.00    +0.176 C 
BRANCH   5   6
ATOM      6  C   GLY A   5      -8.402  -7.227  15.609  0.00  0.00    +0.243 C 
ATOM      7  N   LEU A   6      -9.127  -7.276  16.721  0.00  0.00    -0.297 N 
ATOM      8  H   LEU A   6      -8.697  -7.658  17.587  0.00  0.00    +0.150 HD
ATOM      9  O   GLY A   5      -8.811  -6.729  14.563  0.00  0.00    -0.273 OA
BRANCH   7  10
ATOM     10  CA  LEU A   6     -10.508  -6.809  16.762  0.00  0.00    +0.149 C 
BRANCH  10  11
ATOM     11  C   LEU A   6     -10.654  -5.589  17.664  0.00  0.00    +0.241 C 
ATOM     12  O   LEU A   6     -10.401  -5.665  18.865  0.00  0.00    -0.273 OA
ATOM     13  N   ASN A   7     -11.060  -4.464  17.083  0.00  0.00    -0.297 N 
ATOM     14  H   ASN A   7     -11.253  -4.459  16.061  0.00  0.00    +0.150 HD
BRANCH  13  15
ATOM     15  CA  ASN A   7     -11.241  -3.235  17.850  0.00  0.00    +0.158 C 
BRANCH  15  16
ATOM     16  C   ASN A   7     -12.496  -3.288  18.713  0.00  0.00    +0.241 C 
ATOM     17  N   VAL A   8     -12.304  -3.386  20.025  0.00  0.00    -0.298 N 
ATOM     18  H   VAL A   8     -11.332  -3.416  20.394  0.00  0.00    +0.150 HD
ATOM     19  O   ASN A   7     -13.614  -3.237  18.201  0.00  0.00    -0.273 OA
BRANCH  17  20
ATOM     20  CA  VAL A   8     -13.422  -3.453  20.959  0.00  0.00    +0.137 C 
BRANCH  20  21
ATOM     21  CB  VAL A   8     -13.082  -4.332  22.175  0.00  0.00    +0.026 C 
ATOM     22  CG2 VAL A   8     -14.254  -4.378  23.138  0.00  0.00    +0.002 C 
ATOM     23  CG1 VAL A   8     -12.703  -5.736  21.724  0.00  0.00    +0.002 C 
ENDBRANCH  20  21
BRANCH  20  24
ATOM     24  C   VAL A   8     -13.821  -2.058  21.433  0.00  0.00    +0.227 C 
ATOM     25  O   VAL A   8     -14.958  -1.629  21.239  0.00  0.00    -0.286 OA
ENDBRANCH  20  24
ENDBRANCH  17  20
ENDBRANCH  15  16
BRANCH  15  26
ATOM     26  CB  ASN A   7     -11.306  -2.022  16.922  0.00  0.00    +0.114 C 
BRANCH  26  27
ATOM     27  CG  ASN A   7     -10.064  -1.869  16.067  0.00  0.00    +0.222 C 
ATOM     28  ND2 ASN A   7      -8.899  -1.905  16.702  0.00  0.00    -0.329 N 
ATOM     29 HD21 ASN A   7      -8.873  -2.038  17.733  0.00  0.00    +0.145 HD
ATOM     30 HD22 ASN A   7      -8.012  -1.800  16.168  0.00  0.00    +0.145 HD
ATOM     31  OD1 ASN A   7     -10.151  -1.714  14.848  0.00  0.00    -0.275 OA
ENDBRANCH  26  27
ENDBRANCH  15  26
ENDBRANCH  13  15
ENDBRANCH  10  11
BRANCH  10  32
ATOM     32  CB  LEU A   6     -11.432  -7.934  17.239  0.00  0.00    +0.029 C 
BRANCH  32  33
ATOM     33  CG  LEU A   6     -12.867  -7.550  17.608  0.00  0.00    +0.002 C 
ATOM     34  CD2 LEU A   6     -13.579  -8.716  18.284  0.00  0.00    +0.000 C 
ATOM     35  CD1 LEU A   6     -13.636  -7.080  16.384  0.00  0.00    +0.000 C 
ENDBRANCH  32  33
ENDBRANCH  10  32
ENDBRANCH   7  10
ENDBRANCH   5   6
ENDBRANCH   3   5
BRANCH   1  36
ATOM     36  CA  VAL A   4      -6.922 -11.497  14.680  0.00  0.00    +0.149 C 
BRANCH  36  38
ATOM     37  C   GLY A   3      -5.149 -12.713  13.546  0.00  0.00    +0.243 C 
ATOM     38  N   VAL A   4      -5.715 -12.312  14.679  0.00  0.00    -0.297 N 
ATOM     39  H   VAL A   4      -5.286 -12.586  15.586  0.00  0.00    +0.150 HD
ATOM     40  O   GLY A   3      -5.591 -12.422  12.436  0.00  0.00    -0.273 OA
BRANCH  37  41
ATOM     41  CA  GLY A   3      -3.908 -13.568  13.685  0.00  0.00    +0.176 C 
BRANCH  41  44
ATOM     42  C   LEU A   2      -4.073 -15.937  13.190  0.00  0.00    +0.241 C 
ATOM     43  O   LEU A   2      -4.229 -16.223  14.374  0.00  0.00    -0.273 OA
ATOM     44  N   GLY A   3      -3.909 -14.690  12.764  0.00  0.00    -0.295 N 
ATOM     45  H   GLY A   3      -3.778 -14.513  11.747  0.00  0.00    +0.150 HD
BRANCH  42  46
ATOM     46  CA  LEU A   2      -4.062 -17.028  12.129  0.00  0.00    +0.149 C 
BRANCH  46  48
ATOM     47  C   VAL A   1      -1.814 -17.916  11.789  0.00  0.00    +0.238 C 
ATOM     48  N   LEU A   2      -2.996 -17.988  12.393  0.00  0.00    -0.297 N 
ATOM     49  H   LEU A   2      -3.166 -18.754  13.076  0.00  0.00    +0.150 HD
ATOM     50  O   VAL A   1      -1.535 -17.054  10.956  0.00  0.00    -0.274 OA
BRANCH  47  51
ATOM     51  CA  VAL A   1      -0.798 -18.987  12.176  0.00  0.00    +0.145 C 
BRANCH  51  52
ATOM     52  CB  VAL A   1       0.452 -18.323  12.783  0.00  0.00    +0.025 C 
ATOM     53  CG2 VAL A   1       0.057 -17.339  13.875  0.00  0.00    +0.002 C 
ATOM     54  CG1 VAL A   1       1.396 -19.380  13.331  0.00  0.00    +0.002 C 
ENDBRANCH  51  52
BRANCH  51  55
ATOM     55  N   VAL A   1      -0.462 -19.809  11.020  0.00  0.00    -0.238 NA
ATOM     56  H   VAL A   1       0.261 -19.476  10.350  0.00  0.00    +0.142 HD
ENDBRANCH  51  55
ENDBRANCH  47  51
ENDBRANCH  46  48
BRANCH  46  57
ATOM     57  CB  LEU A   2      -5.424 -17.726  12.086  0.00  0.00    +0.029 C 
BRANCH  57  58
ATOM     58  CG  LEU A   2      -5.707 -18.707  10.948  0.00  0.00    +0.002 C 
ATOM     59  CD2 LEU A   2      -7.018 -19.439  11.192  0.00  0.00    +0.000 C 
ATOM     60  CD1 LEU A   2      -5.733 -17.985   9.611  0.00  0.00    +0.000 C 
ENDBRANCH  57  58
ENDBRANCH  46  57
ENDBRANCH  42  46
ENDBRANCH  41  44
ENDBRANCH  37  41
ENDBRANCH  36  38
BRANCH  36  61
ATOM     61  CB  VAL A   4      -8.143 -12.297  15.183  0.00  0.00    +0.027 C 
ATOM     62  CG2 VAL A   4      -9.350 -11.385  15.348  0.00  0.00    +0.002 C 
ATOM     63  CG1 VAL A   4      -8.460 -13.442  14.232  0.00  0.00    +0.002 C 
ENDBRANCH  36  61
ENDBRANCH   1  36
TORSDOF 25
REMARK  Name = ../refined-set-2016/4xu2/4xu2_pocket.pdb
REMARK  231 active torsions:
REMARK  status: ('A' for Active; 'I' for Inactive)
REMARK    1  A    between atoms: _1  and  _3
REMARK    2  A    between atoms: _3  and  _4
REMARK    3  A    between atoms: _3  and  _6
REMARK    4  A    between atoms: _6  and  _7
REMARK    5  A    between atoms: _10  and  _12
REMARK    6  A    between atoms: _12  and  _13
REMARK    7  A    between atoms: _15  and  _17
REMARK    8  A    between atoms: _17  and  _18
REMARK    9  A    between atoms: _17  and  _20
REMARK   10  A    between atoms: _20  and  _21
REMARK   11  A    between atoms: _23  and  _25
REMARK   12  A    between atoms: _25  and  _26
REMARK   13  A    between atoms: _25  and  _28
REMARK   14  A    between atoms: _28  and  _29
REMARK   15  A    between atoms: _32  and  _34
REMARK   16  A    between atoms: _34  and  _35
REMARK   17  A    between atoms: _34  and  _37
REMARK   18  A    between atoms: _37  and  _38
REMARK   19  A    between atoms: _43  and  _45
REMARK   20  A    between atoms: _45  and  _46
REMARK   21  A    between atoms: _49  and  _51
REMARK   22  A    between atoms: _51  and  _52
REMARK   23  A    between atoms: _51  and  _54
REMARK   24  A    between atoms: _54  and  _55
REMARK   25  A    between atoms: _58  and  _60
REMARK   26  A    between atoms: _60  and  _61
REMARK   27  A    between atoms: _60  and  _63
REMARK   28  A    between atoms: _63  and  _64
REMARK   29  A    between atoms: _67  and  _69
REMARK   30  A    between atoms: _69  and  _70
REMARK   31  A    between atoms: _69  and  _72
REMARK   32  A    between atoms: _72  and  _73
REMARK   33  A    between atoms: _76  and  _78
REMARK   34  A    between atoms: _78  and  _79
REMARK   35  A    between atoms: _82  and  _84
REMARK   36  A    between atoms: _84  and  _85
REMARK   37  A    between atoms: _84  and  _87
REMARK   38  A    between atoms: _87  and  _88
REMARK   39  A    between atoms: _88  and  _89
REMARK   40  A    between atoms: _94  and  _96
REMARK   41  A    between atoms: _96  and  _97
REMARK   42  A    between atoms: _96  and  _99
REMARK   43  A    between atoms: _99  and  _100
REMARK   44  A    between atoms: _103  and  _105
REMARK   45  A    between atoms: _105  and  _106
REMARK   46  A    between atoms: _109  and  _111
REMARK   47  A    between atoms: _111  and  _112
REMARK   48  A    between atoms: _114  and  _116
REMARK   49  A    between atoms: _116  and  _117
REMARK   50  A    between atoms: _116  and  _119
REMARK   51  A    between atoms: _119  and  _120
REMARK   52  A    between atoms: _120  and  _121
REMARK   53  A    between atoms: _121  and  _122
REMARK   54  A    between atoms: _131  and  _133
REMARK   55  A    between atoms: _133  and  _134
REMARK   56  A    between atoms: _136  and  _138
REMARK   57  A    between atoms: _138  and  _139
REMARK   58  A    between atoms: _138  and  _141
REMARK   59  A    between atoms: _141  and  _142
REMARK   60  A    between atoms: _142  and  _143
REMARK   61  A    between atoms: _143  and  _144
REMARK   62  A    between atoms: _153  and  _155
REMARK   63  A    between atoms: _155  and  _156
REMARK   64  A    between atoms: _155  and  _158
REMARK   65  A    between atoms: _158  and  _159
REMARK   66  A    between atoms: _164  and  _166
REMARK   67  A    between atoms: _166  and  _167
REMARK   68  A    between atoms: _169  and  _171
REMARK   69  A    between atoms: _171  and  _172
REMARK   70  A    between atoms: _171  and  _174
REMARK   71  A    between atoms: _174  and  _175
REMARK   72  A    between atoms: _175  and  _176
REMARK   73  A    between atoms: _176  and  _177
REMARK   74  A    between atoms: _186  and  _188
REMARK   75  A    between atoms: _188  and  _189
REMARK   76  A    between atoms: _191  and  _193
REMARK   77  A    between atoms: _193  and  _194
REMARK   78  A    between atoms: _193  and  _196
REMARK   79  A    between atoms: _196  and  _197
REMARK   80  A    between atoms: _207  and  _209
REMARK   81  A    between atoms: _209  and  _210
REMARK   82  A    between atoms: _213  and  _215
REMARK   83  A    between atoms: _215  and  _216
REMARK   84  A    between atoms: _219  and  _221
REMARK   85  A    between atoms: _221  and  _222
REMARK   86  A    between atoms: _221  and  _224
REMARK   87  A    between atoms: _224  and  _225
REMARK   88  A    between atoms: _228  and  _230
REMARK   89  A    between atoms: _230  and  _231
REMARK   90  A    between atoms: _230  and  _233
REMARK   91  A    between atoms: _233  and  _234
REMARK   92  A    between atoms: _234  and  _235
REMARK   93  A    between atoms: _240  and  _242
REMARK   94  A    between atoms: _242  and  _243
REMARK   95  A    between atoms: _242  and  _245
REMARK   96  A    between atoms: _245  and  _246
REMARK   97  A    between atoms: _249  and  _251
REMARK   98  A    between atoms: _251  and  _252
REMARK   99  A    between atoms: _251  and  _254
REMARK  100  A    between atoms: _254  and  _255
REMARK  101  A    between atoms: _258  and  _260
REMARK  102  A    between atoms: _260  and  _261
REMARK  103  A    between atoms: _260  and  _263
REMARK  104  A    between atoms: _263  and  _264
REMARK  105  A    between atoms: _267  and  _269
REMARK  106  A    between atoms: _269  and  _270
REMARK  107  A    between atoms: _269  and  _272
REMARK  108  A    between atoms: _272  and  _273
REMARK  109  A    between atoms: _275  and  _277
REMARK  110  A    between atoms: _277  and  _278
REMARK  111  A    between atoms: _277  and  _280
REMARK  112  A    between atoms: _283  and  _285
REMARK  113  A    between atoms: _285  and  _286
REMARK  114  A    between atoms: _285  and  _288
REMARK  115  A    between atoms: _288  and  _289
REMARK  116  A    between atoms: _289  and  _290
REMARK  117  A    between atoms: _290  and  _291
REMARK  118  A    between atoms: _291  and  _292
REMARK  119  A    between atoms: _297  and  _298
REMARK  120  A    between atoms: _303  and  _305
REMARK  121  A    between atoms: _305  and  _306
REMARK  122  A    between atoms: _305  and  _308
REMARK  123  A    between atoms: _308  and  _309
REMARK  124  A    between atoms: _314  and  _316
REMARK  125  A    between atoms: _316  and  _317
REMARK  126  A    between atoms: _316  and  _319
REMARK  127  A    between atoms: _319  and  _320
REMARK  128  A    between atoms: _323  and  _325
REMARK  129  A    between atoms: _325  and  _326
REMARK  130  A    between atoms: _325  and  _328
REMARK  131  A    between atoms: _331  and  _333
REMARK  132  A    between atoms: _333  and  _334
REMARK  133  A    between atoms: _336  and  _338
REMARK  134  A    between atoms: _338  and  _339
REMARK  135  A    between atoms: _338  and  _341
REMARK  136  A    between atoms: _341  and  _342
REMARK  137  A    between atoms: _342  and  _343
REMARK  138  A    between atoms: _343  and  _344
REMARK  139  A    between atoms: _344  and  _345
REMARK  140  A    between atoms: _349  and  _351
REMARK  141  A    between atoms: _351  and  _352
REMARK  142  A    between atoms: _351  and  _354
REMARK  143  A    between atoms: _354  and  _355
REMARK  144  A    between atoms: _358  and  _360
REMARK  145  A    between atoms: _360  and  _361
REMARK  146  A    between atoms: _364  and  _366
REMARK  147  A    between atoms: _366  and  _367
REMARK  148  A    between atoms: _369  and  _371
REMARK  149  A    between atoms: _371  and  _372
REMARK  150  A    between atoms: _371  and  _374
REMARK  151  A    between atoms: _374  and  _375
REMARK  152  A    between atoms: _378  and  _380
REMARK  153  A    between atoms: _380  and  _381
REMARK  154  A    between atoms: _380  and  _383
REMARK  155  A    between atoms: _383  and  _384
REMARK  156  A    between atoms: _387  and  _389
REMARK  157  A    between atoms: _389  and  _390
REMARK  158  A    between atoms: _393  and  _395
REMARK  159  A    between atoms: _395  and  _396
REMARK  160  A    between atoms: _395  and  _398
REMARK  161  A    between atoms: _398  and  _399
REMARK  162  A    between atoms: _399  and  _400
REMARK  163  A    between atoms: _403  and  _405
REMARK  164  A    between atoms: _405  and  _406
REMARK  165  A    between atoms: _405  and  _408
REMARK  166  A    between atoms: _411  and  _413
REMARK  167  A    between atoms: _413  and  _414
REMARK  168  A    between atoms: _413  and  _416
REMARK  169  A    between atoms: _416  and  _417
REMARK  170  A    between atoms: _420  and  _422
REMARK  171  A    between atoms: _422  and  _423
REMARK  172  A    between atoms: _425  and  _427
REMARK  173  A    between atoms: _427  and  _428
REMARK  174  A    between atoms: _427  and  _430
REMARK  175  A    between atoms: _433  and  _435
REMARK  176  A    between atoms: _435  and  _436
REMARK  177  A    between atoms: _438  and  _440
REMARK  178  A    between atoms: _440  and  _441
REMARK  179  A    between atoms: _440  and  _443
REMARK  180  A    between atoms: _443  and  _444
REMARK  181  A    between atoms: _447  and  _449
REMARK  182  A    between atoms: _449  and  _450
REMARK  183  A    between atoms: _449  and  _452
REMARK  184  A    between atoms: _452  and  _453
REMARK  185  A    between atoms: _458  and  _460
REMARK  186  A    between atoms: _460  and  _461
REMARK  187  A    between atoms: _460  and  _463
REMARK  188  A    between atoms: _466  and  _468
REMARK  189  A    between atoms: _468  and  _469
REMARK  190  A    between atoms: _468  and  _471
REMARK  191  A    between atoms: _471  and  _472
REMARK  192  A    between atoms: _472  and  _473
REMARK  193  A    between atoms: _478  and  _480
REMARK  194  A    between atoms: _480  and  _481
REMARK  195  A    between atoms: _485  and  _486
REMARK  196  A    between atoms: _491  and  _493
REMARK  197  A    between atoms: _493  and  _494
REMARK  198  A    between atoms: _493  and  _496
REMARK  199  A    between atoms: _496  and  _497
REMARK  200  A    between atoms: _497  and  _498
REMARK  201  A    between atoms: _501  and  _503
REMARK  202  A    between atoms: _503  and  _504
REMARK  203  A    between atoms: _503  and  _506
REMARK  204  A    between atoms: _509  and  _511
REMARK  205  A    between atoms: _511  and  _512
REMARK  206  A    between atoms: _511  and  _514
REMARK  207  A    between atoms: _514  and  _515
REMARK  208  A    between atoms: _519  and  _520
REMARK  209  A    between atoms: _525  and  _527
REMARK  210  A    between atoms: _527  and  _528
REMARK  211  A    between atoms: _527  and  _530
REMARK  212  A    between atoms: _530  and  _531
REMARK  213  A    between atoms: _534  and  _536
REMARK  214  A    between atoms: _536  and  _537
REMARK  215  A    between atoms: _540  and  _542
REMARK  216  A    between atoms: _542  and  _543
REMARK  217  A    between atoms: _542  and  _545
REMARK  218  A    between atoms: _545  and  _546
REMARK  219  A    between atoms: _549  and  _551
REMARK  220  A    between atoms: _551  and  _552
REMARK  221  A    between atoms: _551  and  _554
REMARK  222  A    between atoms: _554  and  _555
REMARK  223  A    between atoms: _557  and  _559
REMARK  224  A    between atoms: _559  and  _560
REMARK  225  A    between atoms: _562  and  _564
REMARK  226  A    between atoms: _564  and  _565
REMARK  227  A    between atoms: _564  and  _567
REMARK  228  A    between atoms: _567  and  _568
REMARK  229  A    between atoms: _571  and  _573
REMARK  230  A    between atoms: _573  and  _574
REMARK  231  A    between atoms: _573  and  _576
REMARK                            x       y       z     vdW  Elec       q    Type
REMARK                         _______ _______ _______ _____ _____    ______ ____
ROOT
ATOM      1  C   GLN A   1     -10.701   2.338  19.541  0.00  0.00    +0.238 C 
ATOM      2  N   ALA A   2     -10.293   3.546  19.916  0.00  0.00    -0.297 N 
ATOM      3  H   ALA A   2      -9.682   3.641  20.752  0.00  0.00    +0.150 HD
ATOM      4  O   GLN A   1     -11.461   2.156  18.592  0.00  0.00    -0.274 OA
ENDROOT
BRANCH   2   5
ATOM      5  CA  ALA A   2     -10.685   4.741  19.178  0.00  0.00    +0.149 C 
ATOM      6  CB  ALA A   2     -10.472   5.986  20.026  0.00  0.00    +0.031 C 
BRANCH   5   7
ATOM      7  C   ALA A   2      -9.902   4.843  17.873  0.00  0.00    +0.244 C 
ATOM      8  O   ALA A   2      -8.700   4.583  17.847  0.00  0.00    -0.273 OA
ATOM      9  N   PRO A   3     -10.588   5.216  16.781  0.00  0.00    -0.273 N 
ATOM     10  CD  PRO A   3     -12.043   5.439  16.723  0.00  0.00    +0.094 C 
ATOM     11  CG  PRO A   3     -12.336   5.388  15.252  0.00  0.00    +0.024 C 
ATOM     12  CB  PRO A   3     -11.101   5.894  14.590  0.00  0.00    +0.030 C 
ATOM     13  CA  PRO A   3      -9.959   5.368  15.463  0.00  0.00    +0.140 C 
BRANCH  13  14
ATOM     14  C   PRO A   3      -8.790   6.351  15.478  0.00  0.00    +0.227 C 
ATOM     15  O   PRO A   3      -7.819   6.161  14.745  0.00  0.00    -0.286 OA
ENDBRANCH  13  14
ENDBRANCH   5   7
ENDBRANCH   2   5
BRANCH   1  16
ATOM     16  CA  GLN A   1     -10.174   1.158  20.352  0.00  0.00    +0.145 C 
BRANCH  16  17
ATOM     17  N   GLN A   1     -11.253   0.409  20.986  0.00  0.00    -0.238 NA
ATOM     18  H   GLN A   1     -11.399  -0.585  20.716  0.00  0.00    +0.142 HD
ENDBRANCH  16  17
BRANCH  16  19
ATOM     19  CB  GLN A   1      -9.352   0.235  19.450  0.00  0.00    +0.036 C 
BRANCH  19  20
ATOM     20  CG  GLN A   1      -8.068   0.854  18.925  0.00  0.00    +0.087 C 
BRANCH  20  21
ATOM     21  CD  GLN A   1      -6.949   0.818  19.946  0.00  0.00    +0.219 C 
ATOM     22  NE2 GLN A   1      -6.757   1.924  20.655  0.00  0.00    -0.329 N 
ATOM     23 HE21 GLN A   1      -6.005   1.957  21.373  0.00  0.00    +0.145 HD
ATOM     24 HE22 GLN A   1      -7.358   2.757  20.492  0.00  0.00    +0.145 HD
ATOM     25  OE1 GLN A   1      -6.267  -0.195  20.098  0.00  0.00    -0.275 OA
ENDBRANCH  20  21
ENDBRANCH  19  20
ENDBRANCH  16  19
ENDBRANCH   1  16
TORSDOF 8
REMARK  Name = ../refined-set-2016/4xu2/4xu2_pocket.pdb
REMARK  231 active torsions:
REMARK  status: ('A' for Active; 'I' for Inactive)
REMARK    1  A    between atoms: _1  and  _3
REMARK    2  A    between atoms: _3  and  _4
REMARK    3  A    between atoms: _3  and  _6
REMARK    4  A    between atoms: _6  and  _7
REMARK    5  A    between atoms: _10  and  _12
REMARK    6  A    between atoms: _12  and  _13
REMARK    7  A    between atoms: _15  and  _17
REMARK    8  A    between atoms: _17  and  _18
REMARK    9  A    between atoms: _17  and  _20
REMARK   10  A    between atoms: _20  and  _21
REMARK   11  A    between atoms: _23  and  _25
REMARK   12  A    between atoms: _25  and  _26
REMARK   13  A    between atoms: _25  and  _28
REMARK   14  A    between atoms: _28  and  _29
REMARK   15  A    between atoms: _32  and  _34
REMARK   16  A    between atoms: _34  and  _35
REMARK   17  A    between atoms: _34  and  _37
REMARK   18  A    between atoms: _37  and  _38
REMARK   19  A    between atoms: _43  and  _45
REMARK   20  A    between atoms: _45  and  _46
REMARK   21  A    between atoms: _49  and  _51
REMARK   22  A    between atoms: _51  and  _52
REMARK   23  A    between atoms: _51  and  _54
REMARK   24  A    between atoms: _54  and  _55
REMARK   25  A    between atoms: _58  and  _60
REMARK   26  A    between atoms: _60  and  _61
REMARK   27  A    between atoms: _60  and  _63
REMARK   28  A    between atoms: _63  and  _64
REMARK   29  A    between atoms: _67  and  _69
REMARK   30  A    between atoms: _69  and  _70
REMARK   31  A    between atoms: _69  and  _72
REMARK   32  A    between atoms: _72  and  _73
REMARK   33  A    between atoms: _76  and  _78
REMARK   34  A    between atoms: _78  and  _79
REMARK   35  A    between atoms: _82  and  _84
REMARK   36  A    between atoms: _84  and  _85
REMARK   37  A    between atoms: _84  and  _87
REMARK   38  A    between atoms: _87  and  _88
REMARK   39  A    between atoms: _88  and  _89
REMARK   40  A    between atoms: _94  and  _96
REMARK   41  A    between atoms: _96  and  _97
REMARK   42  A    between atoms: _96  and  _99
REMARK   43  A    between atoms: _99  and  _100
REMARK   44  A    between atoms: _103  and  _105
REMARK   45  A    between atoms: _105  and  _106
REMARK   46  A    between atoms: _109  and  _111
REMARK   47  A    between atoms: _111  and  _112
REMARK   48  A    between atoms: _114  and  _116
REMARK   49  A    between atoms: _116  and  _117
REMARK   50  A    between atoms: _116  and  _119
REMARK   51  A    between atoms: _119  and  _120
REMARK   52  A    between atoms: _120  and  _121
REMARK   53  A    between atoms: _121  and  _122
REMARK   54  A    between atoms: _131  and  _133
REMARK   55  A    between atoms: _133  and  _134
REMARK   56  A    between atoms: _136  and  _138
REMARK   57  A    between atoms: _138  and  _139
REMARK   58  A    between atoms: _138  and  _141
REMARK   59  A    between atoms: _141  and  _142
REMARK   60  A    between atoms: _142  and  _143
REMARK   61  A    between atoms: _143  and  _144
REMARK   62  A    between atoms: _153  and  _155
REMARK   63  A    between atoms: _155  and  _156
REMARK   64  A    between atoms: _155  and  _158
REMARK   65  A    between atoms: _158  and  _159
REMARK   66  A    between atoms: _164  and  _166
REMARK   67  A    between atoms: _166  and  _167
REMARK   68  A    between atoms: _169  and  _171
REMARK   69  A    between atoms: _171  and  _172
REMARK   70  A    between atoms: _171  and  _174
REMARK   71  A    between atoms: _174  and  _175
REMARK   72  A    between atoms: _175  and  _176
REMARK   73  A    between atoms: _176  and  _177
REMARK   74  A    between atoms: _186  and  _188
REMARK   75  A    between atoms: _188  and  _189
REMARK   76  A    between atoms: _191  and  _193
REMARK   77  A    between atoms: _193  and  _194
REMARK   78  A    between atoms: _193  and  _196
REMARK   79  A    between atoms: _196  and  _197
REMARK   80  A    between atoms: _207  and  _209
REMARK   81  A    between atoms: _209  and  _210
REMARK   82  A    between atoms: _213  and  _215
REMARK   83  A    between atoms: _215  and  _216
REMARK   84  A    between atoms: _219  and  _221
REMARK   85  A    between atoms: _221  and  _222
REMARK   86  A    between atoms: _221  and  _224
REMARK   87  A    between atoms: _224  and  _225
REMARK   88  A    between atoms: _228  and  _230
REMARK   89  A    between atoms: _230  and  _231
REMARK   90  A    between atoms: _230  and  _233
REMARK   91  A    between atoms: _233  and  _234
REMARK   92  A    between atoms: _234  and  _235
REMARK   93  A    between atoms: _240  and  _242
REMARK   94  A    between atoms: _242  and  _243
REMARK   95  A    between atoms: _242  and  _245
REMARK   96  A    between atoms: _245  and  _246
REMARK   97  A    between atoms: _249  and  _251
REMARK   98  A    between atoms: _251  and  _252
REMARK   99  A    between atoms: _251  and  _254
REMARK  100  A    between atoms: _254  and  _255
REMARK  101  A    between atoms: _258  and  _260
REMARK  102  A    between atoms: _260  and  _261
REMARK  103  A    between atoms: _260  and  _263
REMARK  104  A    between atoms: _263  and  _264
REMARK  105  A    between atoms: _267  and  _269
REMARK  106  A    between atoms: _269  and  _270
REMARK  107  A    between atoms: _269  and  _272
REMARK  108  A    between atoms: _272  and  _273
REMARK  109  A    between atoms: _275  and  _277
REMARK  110  A    between atoms: _277  and  _278
REMARK  111  A    between atoms: _277  and  _280
REMARK  112  A    between atoms: _283  and  _285
REMARK  113  A    between atoms: _285  and  _286
REMARK  114  A    between atoms: _285  and  _288
REMARK  115  A    between atoms: _288  and  _289
REMARK  116  A    between atoms: _289  and  _290
REMARK  117  A    between atoms: _290  and  _291
REMARK  118  A    between atoms: _291  and  _292
REMARK  119  A    between atoms: _297  and  _298
REMARK  120  A    between atoms: _303  and  _305
REMARK  121  A    between atoms: _305  and  _306
REMARK  122  A    between atoms: _305  and  _308
REMARK  123  A    between atoms: _308  and  _309
REMARK  124  A    between atoms: _314  and  _316
REMARK  125  A    between atoms: _316  and  _317
REMARK  126  A    between atoms: _316  and  _319
REMARK  127  A    between atoms: _319  and  _320
REMARK  128  A    between atoms: _323  and  _325
REMARK  129  A    between atoms: _325  and  _326
REMARK  130  A    between atoms: _325  and  _328
REMARK  131  A    between atoms: _331  and  _333
REMARK  132  A    between atoms: _333  and  _334
REMARK  133  A    between atoms: _336  and  _338
REMARK  134  A    between atoms: _338  and  _339
REMARK  135  A    between atoms: _338  and  _341
REMARK  136  A    between atoms: _341  and  _342
REMARK  137  A    between atoms: _342  and  _343
REMARK  138  A    between atoms: _343  and  _344
REMARK  139  A    between atoms: _344  and  _345
REMARK  140  A    between atoms: _349  and  _351
REMARK  141  A    between atoms: _351  and  _352
REMARK  142  A    between atoms: _351  and  _354
REMARK  143  A    between atoms: _354  and  _355
REMARK  144  A    between atoms: _358  and  _360
REMARK  145  A    between atoms: _360  and  _361
REMARK  146  A    between atoms: _364  and  _366
REMARK  147  A    between atoms: _366  and  _367
REMARK  148  A    between atoms: _369  and  _371
REMARK  149  A    between atoms: _371  and  _372
REMARK  150  A    between atoms: _371  and  _374
REMARK  151  A    between atoms: _374  and  _375
REMARK  152  A    between atoms: _378  and  _380
REMARK  153  A    between atoms: _380  and  _381
REMARK  154  A    between atoms: _380  and  _383
REMARK  155  A    between atoms: _383  and  _384
REMARK  156  A    between atoms: _387  and  _389
REMARK  157  A    between atoms: _389  and  _390
REMARK  158  A    between atoms: _393  and  _395
REMARK  159  A    between atoms: _395  and  _396
REMARK  160  A    between atoms: _395  and  _398
REMARK  161  A    between atoms: _398  and  _399
REMARK  162  A    between atoms: _399  and  _400
REMARK  163  A    between atoms: _403  and  _405
REMARK  164  A    between atoms: _405  and  _406
REMARK  165  A    between atoms: _405  and  _408
REMARK  166  A    between atoms: _411  and  _413
REMARK  167  A    between atoms: _413  and  _414
REMARK  168  A    between atoms: _413  and  _416
REMARK  169  A    between atoms: _416  and  _417
REMARK  170  A    between atoms: _420  and  _422
REMARK  171  A    between atoms: _422  and  _423
REMARK  172  A    between atoms: _425  and  _427
REMARK  173  A    between atoms: _427  and  _428
REMARK  174  A    between atoms: _427  and  _430
REMARK  175  A    between atoms: _433  and  _435
REMARK  176  A    between atoms: _435  and  _436
REMARK  177  A    between atoms: _438  and  _440
REMARK  178  A    between atoms: _440  and  _441
REMARK  179  A    between atoms: _440  and  _443
REMARK  180  A    between atoms: _443  and  _444
REMARK  181  A    between atoms: _447  and  _449
REMARK  182  A    between atoms: _449  and  _450
REMARK  183  A    between atoms: _449  and  _452
REMARK  184  A    between atoms: _452  and  _453
REMARK  185  A    between atoms: _458  and  _460
REMARK  186  A    between atoms: _460  and  _461
REMARK  187  A    between atoms: _460  and  _463
REMARK  188  A    between atoms: _466  and  _468
REMARK  189  A    between atoms: _468  and  _469
REMARK  190  A    between atoms: _468  and  _471
REMARK  191  A    between atoms: _471  and  _472
REMARK  192  A    between atoms: _472  and  _473
REMARK  193  A    between atoms: _478  and  _480
REMARK  194  A    between atoms: _480  and  _481
REMARK  195  A    between atoms: _485  and  _486
REMARK  196  A    between atoms: _491  and  _493
REMARK  197  A    between atoms: _493  and  _494
REMARK  198  A    between atoms: _493  and  _496
REMARK  199  A    between atoms: _496  and  _497
REMARK  200  A    between atoms: _497  and  _498
REMARK  201  A    between atoms: _501  and  _503
REMARK  202  A    between atoms: _503  and  _504
REMARK  203  A    between atoms: _503  and  _506
REMARK  204  A    between atoms: _509  and  _511
REMARK  205  A    between atoms: _511  and  _512
REMARK  206  A    between atoms: _511  and  _514
REMARK  207  A    between atoms: _514  and  _515
REMARK  208  A    between atoms: _519  and  _520
REMARK  209  A    between atoms: _525  and  _527
REMARK  210  A    between atoms: _527  and  _528
REMARK  211  A    between atoms: _527  and  _530
REMARK  212  A    between atoms: _530  and  _531
REMARK  213  A    between atoms: _534  and  _536
REMARK  214  A    between atoms: _536  and  _537
REMARK  215  A    between atoms: _540  and  _542
REMARK  216  A    between atoms: _542  and  _543
REMARK  217  A    between atoms: _542  and  _545
REMARK  218  A    between atoms: _545  and  _546
REMARK  219  A    between atoms: _549  and  _551
REMARK  220  A    between atoms: _551  and  _552
REMARK  221  A    between atoms: _551  and  _554
REMARK  222  A    between atoms: _554  and  _555
REMARK  223  A    between atoms: _557  and  _559
REMARK  224  A    between atoms: _559  and  _560
REMARK  225  A    between atoms: _562  and  _564
REMARK  226  A    between atoms: _564  and  _565
REMARK  227  A    between atoms: _564  and  _567
REMARK  228  A    between atoms: _567  and  _568
REMARK  229  A    between atoms: _571  and  _573
REMARK  230  A    between atoms: _573  and  _574
REMARK  231  A    between atoms: _573  and  _576
REMARK                            x       y       z     vdW  Elec       q    Type
REMARK                         _______ _______ _______ _____ _____    ______ ____
ROOT
ATOM      1  C   PRO A   4      -9.836   6.304   9.822  0.00  0.00    +0.241 C 
ATOM      2  O   PRO A   4     -10.993   6.718   9.903  0.00  0.00    -0.273 OA
ATOM      3  N   ASP A   5      -9.510   5.176   9.198  0.00  0.00    -0.297 N 
ATOM      4  H   ASP A   5      -8.513   4.882   9.166  0.00  0.00    +0.150 HD
ENDROOT
BRANCH   1   8
ATOM      5  C   ASP A   3      -7.561   5.321  11.711  0.00  0.00    +0.244 C 
ATOM      6  O   ASP A   3      -8.591   5.015  12.310  0.00  0.00    -0.273 OA
ATOM      7  N   PRO A   4      -7.520   6.302  10.795  0.00  0.00    -0.272 N 
ATOM      8  CA  PRO A   4      -8.703   7.108  10.462  0.00  0.00    +0.152 C 
ATOM      9  CB  PRO A   4      -8.152   8.148   9.477  0.00  0.00    +0.031 C 
ATOM     10  CG  PRO A   4      -6.906   7.536   8.928  0.00  0.00    +0.024 C 
ATOM     11  CD  PRO A   4      -6.325   6.750  10.060  0.00  0.00    +0.094 C 
BRANCH   5  12
ATOM     12  CA  ASP A   3      -6.257   4.576  11.991  0.00  0.00    +0.160 C 
BRANCH  12  14
ATOM     13  C   VAL A   2      -4.914   3.938  13.927  0.00  0.00    +0.241 C 
ATOM     14  N   ASP A   3      -6.073   4.358  13.425  0.00  0.00    -0.297 N 
ATOM     15  H   ASP A   3      -6.869   4.536  14.070  0.00  0.00    +0.150 HD
ATOM     16  O   VAL A   2      -3.901   3.807  13.239  0.00  0.00    -0.273 OA
BRANCH  13  17
ATOM     17  CA  VAL A   2      -4.872   3.612  15.425  0.00  0.00    +0.148 C 
BRANCH  17  20
ATOM     18  C   GLU A   1      -4.802   5.058  17.370  0.00  0.00    +0.238 C 
ATOM     19  O   GLU A   1      -3.638   4.737  17.609  0.00  0.00    -0.274 OA
ATOM     20  N   VAL A   2      -5.457   4.631  16.293  0.00  0.00    -0.297 N 
ATOM     21  H   VAL A   2      -6.392   5.026  16.068  0.00  0.00    +0.150 HD
BRANCH  18  22
ATOM     22  CA  GLU A   1      -5.559   5.980  18.324  0.00  0.00    +0.145 C 
BRANCH  22  23
ATOM     23  N   GLU A   1      -6.690   6.639  17.680  0.00  0.00    -0.238 NA
ATOM     24  H   GLU A   1      -7.626   6.187  17.715  0.00  0.00    +0.142 HD
ENDBRANCH  22  23
BRANCH  22  25
ATOM     25  CB  GLU A   1      -6.028   5.175  19.541  0.00  0.00    +0.038 C 
BRANCH  25  26
ATOM     26  CG  GLU A   1      -6.510   6.011  20.715  0.00  0.00    +0.116 C 
BRANCH  26  27
ATOM     27  CD  GLU A   1      -7.053   5.160  21.850  0.00  0.00    +0.365 C 
ATOM     28  OE2 GLU A   1      -6.681   5.412  23.015  0.00  0.00    -0.246 OA
ATOM     29  OE1 GLU A   1      -7.847   4.235  21.576  0.00  0.00    -0.246 OA
ENDBRANCH  26  27
ENDBRANCH  25  26
ENDBRANCH  22  25
ENDBRANCH  18  22
ENDBRANCH  17  20
BRANCH  17  30
ATOM     30  CB  VAL A   2      -5.556   2.241  15.653  0.00  0.00    +0.027 C 
ATOM     31  CG2 VAL A   2      -5.085   1.630  16.962  0.00  0.00    +0.002 C 
ATOM     32  CG1 VAL A   2      -7.073   2.381  15.648  0.00  0.00    +0.002 C 
ENDBRANCH  17  30
ENDBRANCH  13  17
ENDBRANCH  12  14
BRANCH  12  33
ATOM     33  CB  ASP A   3      -6.243   3.238  11.244  0.00  0.00    +0.143 C 
BRANCH  33  34
ATOM     34  CG  ASP A   3      -6.150   3.408   9.740  0.00  0.00    +0.367 C 
ATOM     35  OD2 ASP A   3      -5.018   3.515   9.221  0.00  0.00    -0.246 OA
ATOM     36  OD1 ASP A   3      -7.207   3.434   9.076  0.00  0.00    -0.246 OA
ENDBRANCH  33  34
ENDBRANCH  12  33
ENDBRANCH   5  12
ENDBRANCH   1   8
BRANCH   3  37
ATOM     37  CA  ASP A   5     -10.522   4.342   8.557  0.00  0.00    +0.160 C 
BRANCH  37  38
ATOM     38  C   ASP A   5     -11.000   3.222   9.478  0.00  0.00    +0.241 C 
ATOM     39  N   ALA A   6     -10.586   3.274  10.739  0.00  0.00    -0.297 N 
ATOM     40  H   ALA A   6      -9.997   4.073  11.049  0.00  0.00    +0.150 HD
ATOM     41  O   ASP A   5     -11.736   2.332   9.054  0.00  0.00    -0.273 OA
BRANCH  39  42
ATOM     42  CA  ALA A   6     -10.940   2.234  11.699  0.00  0.00    +0.149 C 
ATOM     43  CB  ALA A   6      -9.831   2.067  12.723  0.00  0.00    +0.031 C 
BRANCH  42  44
ATOM     44  C   ALA A   6     -12.262   2.523  12.404  0.00  0.00    +0.241 C 
ATOM     45  N   THR A   7     -12.795   1.501  13.064  0.00  0.00    -0.295 N 
ATOM     46  H   THR A   7     -12.360   0.561  12.965  0.00  0.00    +0.150 HD
ATOM     47  O   ALA A   6     -12.785   3.636  12.344  0.00  0.00    -0.273 OA
BRANCH  45  48
ATOM     48  CA  THR A   7     -13.965   1.644  13.921  0.00  0.00    +0.176 C 
BRANCH  48  49
ATOM     49  C   THR A   7     -13.891   0.589  15.019  0.00  0.00    +0.243 C 
ATOM     50  N   SER A   8     -14.783   0.677  16.000  0.00  0.00    -0.296 N 
ATOM     51  H   SER A   8     -15.484   1.445  15.983  0.00  0.00    +0.150 HD
ATOM     52  O   THR A   7     -13.029  -0.286  14.980  0.00  0.00    -0.273 OA
BRANCH  50  53
ATOM     53  CA  SER A   8     -14.801  -0.280  17.101  0.00  0.00    +0.166 C 
BRANCH  53  54
ATOM     54  CB  SER A   8     -16.231  -0.560  17.539  0.00  0.00    +0.229 C 
ATOM     55  OG  SER A   8     -17.151   0.155  17.150  0.00  0.00    -0.286 OA
ENDBRANCH  53  54
BRANCH  53  56
ATOM     56  C   SER A   8     -13.985   0.239  18.285  0.00  0.00    +0.165 C 
BRANCH  56  57
ATOM     57  O   SER A   8     -14.606   1.372  18.868  0.00  0.00    -0.380 OA
ATOM     58  H   SER A   8     -14.680   2.091  18.192  0.00  0.00    +0.211 HD
ENDBRANCH  56  57
ENDBRANCH  53  56
ENDBRANCH  50  53
ENDBRANCH  48  49
BRANCH  48  59
ATOM     59  CB  THR A   7     -15.285   1.500  13.137  0.00  0.00    +0.137 C 
ATOM     60  CG2 THR A   7     -15.481   0.065  12.671  0.00  0.00    +0.034 C 
BRANCH  59  61
ATOM     61  OG1 THR A   7     -16.384   1.884  13.973  0.00  0.00    -0.382 OA
ATOM     62  HG1 THR A   7     -16.269   2.826  14.255  0.00  0.00    +0.210 HD
ENDBRANCH  59  61
ENDBRANCH  48  59
ENDBRANCH  45  48
ENDBRANCH  42  44
ENDBRANCH  39  42
ENDBRANCH  37  38
BRANCH  37  63
ATOM     63  CB  ASP A   5      -9.981   3.747   7.254  0.00  0.00    +0.143 C 
BRANCH  63  64
ATOM     64  CG  ASP A   5      -9.780   4.793   6.175  0.00  0.00    +0.367 C 
ATOM     65  OD2 ASP A   5     -10.586   5.745   6.111  0.00  0.00    -0.246 OA
ATOM     66  OD1 ASP A   5      -8.817   4.661   5.391  0.00  0.00    -0.246 OA
ENDBRANCH  63  64
ENDBRANCH  37  63
ENDBRANCH   3  37
TORSDOF 27
REMARK  Name = ../refined-set-2016/4xu2/4xu2_pocket.pdb
REMARK  231 active torsions:
REMARK  status: ('A' for Active; 'I' for Inactive)
REMARK    1  A    between atoms: _1  and  _3
REMARK    2  A    between atoms: _3  and  _4
REMARK    3  A    between atoms: _3  and  _6
REMARK    4  A    between atoms: _6  and  _7
REMARK    5  A    between atoms: _10  and  _12
REMARK    6  A    between atoms: _12  and  _13
REMARK    7  A    between atoms: _15  and  _17
REMARK    8  A    between atoms: _17  and  _18
REMARK    9  A    between atoms: _17  and  _20
REMARK   10  A    between atoms: _20  and  _21
REMARK   11  A    between atoms: _23  and  _25
REMARK   12  A    between atoms: _25  and  _26
REMARK   13  A    between atoms: _25  and  _28
REMARK   14  A    between atoms: _28  and  _29
REMARK   15  A    between atoms: _32  and  _34
REMARK   16  A    between atoms: _34  and  _35
REMARK   17  A    between atoms: _34  and  _37
REMARK   18  A    between atoms: _37  and  _38
REMARK   19  A    between atoms: _43  and  _45
REMARK   20  A    between atoms: _45  and  _46
REMARK   21  A    between atoms: _49  and  _51
REMARK   22  A    between atoms: _51  and  _52
REMARK   23  A    between atoms: _51  and  _54
REMARK   24  A    between atoms: _54  and  _55
REMARK   25  A    between atoms: _58  and  _60
REMARK   26  A    between atoms: _60  and  _61
REMARK   27  A    between atoms: _60  and  _63
REMARK   28  A    between atoms: _63  and  _64
REMARK   29  A    between atoms: _67  and  _69
REMARK   30  A    between atoms: _69  and  _70
REMARK   31  A    between atoms: _69  and  _72
REMARK   32  A    between atoms: _72  and  _73
REMARK   33  A    between atoms: _76  and  _78
REMARK   34  A    between atoms: _78  and  _79
REMARK   35  A    between atoms: _82  and  _84
REMARK   36  A    between atoms: _84  and  _85
REMARK   37  A    between atoms: _84  and  _87
REMARK   38  A    between atoms: _87  and  _88
REMARK   39  A    between atoms: _88  and  _89
REMARK   40  A    between atoms: _94  and  _96
REMARK   41  A    between atoms: _96  and  _97
REMARK   42  A    between atoms: _96  and  _99
REMARK   43  A    between atoms: _99  and  _100
REMARK   44  A    between atoms: _103  and  _105
REMARK   45  A    between atoms: _105  and  _106
REMARK   46  A    between atoms: _109  and  _111
REMARK   47  A    between atoms: _111  and  _112
REMARK   48  A    between atoms: _114  and  _116
REMARK   49  A    between atoms: _116  and  _117
REMARK   50  A    between atoms: _116  and  _119
REMARK   51  A    between atoms: _119  and  _120
REMARK   52  A    between atoms: _120  and  _121
REMARK   53  A    between atoms: _121  and  _122
REMARK   54  A    between atoms: _131  and  _133
REMARK   55  A    between atoms: _133  and  _134
REMARK   56  A    between atoms: _136  and  _138
REMARK   57  A    between atoms: _138  and  _139
REMARK   58  A    between atoms: _138  and  _141
REMARK   59  A    between atoms: _141  and  _142
REMARK   60  A    between atoms: _142  and  _143
REMARK   61  A    between atoms: _143  and  _144
REMARK   62  A    between atoms: _153  and  _155
REMARK   63  A    between atoms: _155  and  _156
REMARK   64  A    between atoms: _155  and  _158
REMARK   65  A    between atoms: _158  and  _159
REMARK   66  A    between atoms: _164  and  _166
REMARK   67  A    between atoms: _166  and  _167
REMARK   68  A    between atoms: _169  and  _171
REMARK   69  A    between atoms: _171  and  _172
REMARK   70  A    between atoms: _171  and  _174
REMARK   71  A    between atoms: _174  and  _175
REMARK   72  A    between atoms: _175  and  _176
REMARK   73  A    between atoms: _176  and  _177
REMARK   74  A    between atoms: _186  and  _188
REMARK   75  A    between atoms: _188  and  _189
REMARK   76  A    between atoms: _191  and  _193
REMARK   77  A    between atoms: _193  and  _194
REMARK   78  A    between atoms: _193  and  _196
REMARK   79  A    between atoms: _196  and  _197
REMARK   80  A    between atoms: _207  and  _209
REMARK   81  A    between atoms: _209  and  _210
REMARK   82  A    between atoms: _213  and  _215
REMARK   83  A    between atoms: _215  and  _216
REMARK   84  A    between atoms: _219  and  _221
REMARK   85  A    between atoms: _221  and  _222
REMARK   86  A    between atoms: _221  and  _224
REMARK   87  A    between atoms: _224  and  _225
REMARK   88  A    between atoms: _228  and  _230
REMARK   89  A    between atoms: _230  and  _231
REMARK   90  A    between atoms: _230  and  _233
REMARK   91  A    between atoms: _233  and  _234
REMARK   92  A    between atoms: _234  and  _235
REMARK   93  A    between atoms: _240  and  _242
REMARK   94  A    between atoms: _242  and  _243
REMARK   95  A    between atoms: _242  and  _245
REMARK   96  A    between atoms: _245  and  _246
REMARK   97  A    between atoms: _249  and  _251
REMARK   98  A    between atoms: _251  and  _252
REMARK   99  A    between atoms: _251  and  _254
REMARK  100  A    between atoms: _254  and  _255
REMARK  101  A    between atoms: _258  and  _260
REMARK  102  A    between atoms: _260  and  _261
REMARK  103  A    between atoms: _260  and  _263
REMARK  104  A    between atoms: _263  and  _264
REMARK  105  A    between atoms: _267  and  _269
REMARK  106  A    between atoms: _269  and  _270
REMARK  107  A    between atoms: _269  and  _272
REMARK  108  A    between atoms: _272  and  _273
REMARK  109  A    between atoms: _275  and  _277
REMARK  110  A    between atoms: _277  and  _278
REMARK  111  A    between atoms: _277  and  _280
REMARK  112  A    between atoms: _283  and  _285
REMARK  113  A    between atoms: _285  and  _286
REMARK  114  A    between atoms: _285  and  _288
REMARK  115  A    between atoms: _288  and  _289
REMARK  116  A    between atoms: _289  and  _290
REMARK  117  A    between atoms: _290  and  _291
REMARK  118  A    between atoms: _291  and  _292
REMARK  119  A    between atoms: _297  and  _298
REMARK  120  A    between atoms: _303  and  _305
REMARK  121  A    between atoms: _305  and  _306
REMARK  122  A    between atoms: _305  and  _308
REMARK  123  A    between atoms: _308  and  _309
REMARK  124  A    between atoms: _314  and  _316
REMARK  125  A    between atoms: _316  and  _317
REMARK  126  A    between atoms: _316  and  _319
REMARK  127  A    between atoms: _319  and  _320
REMARK  128  A    between atoms: _323  and  _325
REMARK  129  A    between atoms: _325  and  _326
REMARK  130  A    between atoms: _325  and  _328
REMARK  131  A    between atoms: _331  and  _333
REMARK  132  A    between atoms: _333  and  _334
REMARK  133  A    between atoms: _336  and  _338
REMARK  134  A    between atoms: _338  and  _339
REMARK  135  A    between atoms: _338  and  _341
REMARK  136  A    between atoms: _341  and  _342
REMARK  137  A    between atoms: _342  and  _343
REMARK  138  A    between atoms: _343  and  _344
REMARK  139  A    between atoms: _344  and  _345
REMARK  140  A    between atoms: _349  and  _351
REMARK  141  A    between atoms: _351  and  _352
REMARK  142  A    between atoms: _351  and  _354
REMARK  143  A    between atoms: _354  and  _355
REMARK  144  A    between atoms: _358  and  _360
REMARK  145  A    between atoms: _360  and  _361
REMARK  146  A    between atoms: _364  and  _366
REMARK  147  A    between atoms: _366  and  _367
REMARK  148  A    between atoms: _369  and  _371
REMARK  149  A    between atoms: _371  and  _372
REMARK  150  A    between atoms: _371  and  _374
REMARK  151  A    between atoms: _374  and  _375
REMARK  152  A    between atoms: _378  and  _380
REMARK  153  A    between atoms: _380  and  _381
REMARK  154  A    between atoms: _380  and  _383
REMARK  155  A    between atoms: _383  and  _384
REMARK  156  A    between atoms: _387  and  _389
REMARK  157  A    between atoms: _389  and  _390
REMARK  158  A    between atoms: _393  and  _395
REMARK  159  A    between atoms: _395  and  _396
REMARK  160  A    between atoms: _395  and  _398
REMARK  161  A    between atoms: _398  and  _399
REMARK  162  A    between atoms: _399  and  _400
REMARK  163  A    between atoms: _403  and  _405
REMARK  164  A    between atoms: _405  and  _406
REMARK  165  A    between atoms: _405  and  _408
REMARK  166  A    between atoms: _411  and  _413
REMARK  167  A    between atoms: _413  and  _414
REMARK  168  A    between atoms: _413  and  _416
REMARK  169  A    between atoms: _416  and  _417
REMARK  170  A    between atoms: _420  and  _422
REMARK  171  A    between atoms: _422  and  _423
REMARK  172  A    between atoms: _425  and  _427
REMARK  173  A    between atoms: _427  and  _428
REMARK  174  A    between atoms: _427  and  _430
REMARK  175  A    between atoms: _433  and  _435
REMARK  176  A    between atoms: _435  and  _436
REMARK  177  A    between atoms: _438  and  _440
REMARK  178  A    between atoms: _440  and  _441
REMARK  179  A    between atoms: _440  and  _443
REMARK  180  A    between atoms: _443  and  _444
REMARK  181  A    between atoms: _447  and  _449
REMARK  182  A    between atoms: _449  and  _450
REMARK  183  A    between atoms: _449  and  _452
REMARK  184  A    between atoms: _452  and  _453
REMARK  185  A    between atoms: _458  and  _460
REMARK  186  A    between atoms: _460  and  _461
REMARK  187  A    between atoms: _460  and  _463
REMARK  188  A    between atoms: _466  and  _468
REMARK  189  A    between atoms: _468  and  _469
REMARK  190  A    between atoms: _468  and  _471
REMARK  191  A    between atoms: _471  and  _472
REMARK  192  A    between atoms: _472  and  _473
REMARK  193  A    between atoms: _478  and  _480
REMARK  194  A    between atoms: _480  and  _481
REMARK  195  A    between atoms: _485  and  _486
REMARK  196  A    between atoms: _491  and  _493
REMARK  197  A    between atoms: _493  and  _494
REMARK  198  A    between atoms: _493  and  _496
REMARK  199  A    between atoms: _496  and  _497
REMARK  200  A    between atoms: _497  and  _498
REMARK  201  A    between atoms: _501  and  _503
REMARK  202  A    between atoms: _503  and  _504
REMARK  203  A    between atoms: _503  and  _506
REMARK  204  A    between atoms: _509  and  _511
REMARK  205  A    between atoms: _511  and  _512
REMARK  206  A    between atoms: _511  and  _514
REMARK  207  A    between atoms: _514  and  _515
REMARK  208  A    between atoms: _519  and  _520
REMARK  209  A    between atoms: _525  and  _527
REMARK  210  A    between atoms: _527  and  _528
REMARK  211  A    between atoms: _527  and  _530
REMARK  212  A    between atoms: _530  and  _531
REMARK  213  A    between atoms: _534  and  _536
REMARK  214  A    between atoms: _536  and  _537
REMARK  215  A    between atoms: _540  and  _542
REMARK  216  A    between atoms: _542  and  _543
REMARK  217  A    between atoms: _542  and  _545
REMARK  218  A    between atoms: _545  and  _546
REMARK  219  A    between atoms: _549  and  _551
REMARK  220  A    between atoms: _551  and  _552
REMARK  221  A    between atoms: _551  and  _554
REMARK  222  A    between atoms: _554  and  _555
REMARK  223  A    between atoms: _557  and  _559
REMARK  224  A    between atoms: _559  and  _560
REMARK  225  A    between atoms: _562  and  _564
REMARK  226  A    between atoms: _564  and  _565
REMARK  227  A    between atoms: _564  and  _567
REMARK  228  A    between atoms: _567  and  _568
REMARK  229  A    between atoms: _571  and  _573
REMARK  230  A    between atoms: _573  and  _574
REMARK  231  A    between atoms: _573  and  _576
REMARK                            x       y       z     vdW  Elec       q    Type
REMARK                         _______ _______ _______ _____ _____    ______ ____
ROOT
ATOM      1  CA  ASP A   2      -6.407  -4.262  -1.377  0.00  0.00    +0.160 C 
ENDROOT
BRANCH   1   4
ATOM      2  C   GLY A   1      -5.572  -6.424  -2.123  0.00  0.00    +0.240 C 
ATOM      3  O   GLY A   1      -6.239  -7.029  -1.284  0.00  0.00    -0.274 OA
ATOM      4  N   ASP A   2      -5.572  -5.099  -2.230  0.00  0.00    -0.297 N 
ATOM      5  H   ASP A   2      -4.961  -4.648  -2.940  0.00  0.00    +0.150 HD
BRANCH   2   6
ATOM      6  CA  GLY A   1      -4.689  -7.172  -3.102  0.00  0.00    +0.169 C 
BRANCH   6   7
ATOM      7  N   GLY A   1      -4.565  -8.585  -2.792  0.00  0.00    -0.236 NA
ATOM      8  H   GLY A   1      -4.828  -8.923  -1.844  0.00  0.00    +0.142 HD
ENDBRANCH   6   7
ENDBRANCH   2   6
ENDBRANCH   1   4
BRANCH   1   9
ATOM      9  C   ASP A   2      -7.650  -3.804  -2.131  0.00  0.00    +0.241 C 
ATOM     10  N   VAL A   3      -8.818  -4.102  -1.573  0.00  0.00    -0.298 N 
ATOM     11  H   VAL A   3      -8.831  -4.566  -0.642  0.00  0.00    +0.150 HD
ATOM     12  O   ASP A   2      -7.551  -3.193  -3.196  0.00  0.00    -0.273 OA
BRANCH  10  13
ATOM     13  CA  VAL A   3     -10.083  -3.795  -2.232  0.00  0.00    +0.137 C 
BRANCH  13  14
ATOM     14  CB  VAL A   3     -11.098  -4.945  -2.051  0.00  0.00    +0.026 C 
ATOM     15  CG2 VAL A   3     -12.474  -4.536  -2.558  0.00  0.00    +0.002 C 
ATOM     16  CG1 VAL A   3     -10.611  -6.197  -2.762  0.00  0.00    +0.002 C 
ENDBRANCH  13  14
BRANCH  13  17
ATOM     17  C   VAL A   3     -10.706  -2.501  -1.715  0.00  0.00    +0.227 C 
ATOM     18  O   VAL A   3     -10.827  -2.293  -0.508  0.00  0.00    -0.286 OA
ENDBRANCH  13  17
ENDBRANCH  10  13
ENDBRANCH   1   9
BRANCH   1  19
ATOM     19  CB  ASP A   2      -5.615  -3.056  -0.869  0.00  0.00    +0.143 C 
BRANCH  19  20
ATOM     20  CG  ASP A   2      -4.346  -3.458  -0.143  0.00  0.00    +0.367 C 
ATOM     21  OD2 ASP A   2      -4.356  -4.504   0.540  0.00  0.00    -0.246 OA
ATOM     22  OD1 ASP A   2      -3.336  -2.731  -0.259  0.00  0.00    -0.246 OA
ENDBRANCH  19  20
ENDBRANCH   1  19
TORSDOF 9
REMARK  Name = ../refined-set-2016/4xu2/4xu2_pocket.pdb
REMARK  231 active torsions:
REMARK  status: ('A' for Active; 'I' for Inactive)
REMARK    1  A    between atoms: _1  and  _3
REMARK    2  A    between atoms: _3  and  _4
REMARK    3  A    between atoms: _3  and  _6
REMARK    4  A    between atoms: _6  and  _7
REMARK    5  A    between atoms: _10  and  _12
REMARK    6  A    between atoms: _12  and  _13
REMARK    7  A    between atoms: _15  and  _17
REMARK    8  A    between atoms: _17  and  _18
REMARK    9  A    between atoms: _17  and  _20
REMARK   10  A    between atoms: _20  and  _21
REMARK   11  A    between atoms: _23  and  _25
REMARK   12  A    between atoms: _25  and  _26
REMARK   13  A    between atoms: _25  and  _28
REMARK   14  A    between atoms: _28  and  _29
REMARK   15  A    between atoms: _32  and  _34
REMARK   16  A    between atoms: _34  and  _35
REMARK   17  A    between atoms: _34  and  _37
REMARK   18  A    between atoms: _37  and  _38
REMARK   19  A    between atoms: _43  and  _45
REMARK   20  A    between atoms: _45  and  _46
REMARK   21  A    between atoms: _49  and  _51
REMARK   22  A    between atoms: _51  and  _52
REMARK   23  A    between atoms: _51  and  _54
REMARK   24  A    between atoms: _54  and  _55
REMARK   25  A    between atoms: _58  and  _60
REMARK   26  A    between atoms: _60  and  _61
REMARK   27  A    between atoms: _60  and  _63
REMARK   28  A    between atoms: _63  and  _64
REMARK   29  A    between atoms: _67  and  _69
REMARK   30  A    between atoms: _69  and  _70
REMARK   31  A    between atoms: _69  and  _72
REMARK   32  A    between atoms: _72  and  _73
REMARK   33  A    between atoms: _76  and  _78
REMARK   34  A    between atoms: _78  and  _79
REMARK   35  A    between atoms: _82  and  _84
REMARK   36  A    between atoms: _84  and  _85
REMARK   37  A    between atoms: _84  and  _87
REMARK   38  A    between atoms: _87  and  _88
REMARK   39  A    between atoms: _88  and  _89
REMARK   40  A    between atoms: _94  and  _96
REMARK   41  A    between atoms: _96  and  _97
REMARK   42  A    between atoms: _96  and  _99
REMARK   43  A    between atoms: _99  and  _100
REMARK   44  A    between atoms: _103  and  _105
REMARK   45  A    between atoms: _105  and  _106
REMARK   46  A    between atoms: _109  and  _111
REMARK   47  A    between atoms: _111  and  _112
REMARK   48  A    between atoms: _114  and  _116
REMARK   49  A    between atoms: _116  and  _117
REMARK   50  A    between atoms: _116  and  _119
REMARK   51  A    between atoms: _119  and  _120
REMARK   52  A    between atoms: _120  and  _121
REMARK   53  A    between atoms: _121  and  _122
REMARK   54  A    between atoms: _131  and  _133
REMARK   55  A    between atoms: _133  and  _134
REMARK   56  A    between atoms: _136  and  _138
REMARK   57  A    between atoms: _138  and  _139
REMARK   58  A    between atoms: _138  and  _141
REMARK   59  A    between atoms: _141  and  _142
REMARK   60  A    between atoms: _142  and  _143
REMARK   61  A    between atoms: _143  and  _144
REMARK   62  A    between atoms: _153  and  _155
REMARK   63  A    between atoms: _155  and  _156
REMARK   64  A    between atoms: _155  and  _158
REMARK   65  A    between atoms: _158  and  _159
REMARK   66  A    between atoms: _164  and  _166
REMARK   67  A    between atoms: _166  and  _167
REMARK   68  A    between atoms: _169  and  _171
REMARK   69  A    between atoms: _171  and  _172
REMARK   70  A    between atoms: _171  and  _174
REMARK   71  A    between atoms: _174  and  _175
REMARK   72  A    between atoms: _175  and  _176
REMARK   73  A    between atoms: _176  and  _177
REMARK   74  A    between atoms: _186  and  _188
REMARK   75  A    between atoms: _188  and  _189
REMARK   76  A    between atoms: _191  and  _193
REMARK   77  A    between atoms: _193  and  _194
REMARK   78  A    between atoms: _193  and  _196
REMARK   79  A    between atoms: _196  and  _197
REMARK   80  A    between atoms: _207  and  _209
REMARK   81  A    between atoms: _209  and  _210
REMARK   82  A    between atoms: _213  and  _215
REMARK   83  A    between atoms: _215  and  _216
REMARK   84  A    between atoms: _219  and  _221
REMARK   85  A    between atoms: _221  and  _222
REMARK   86  A    between atoms: _221  and  _224
REMARK   87  A    between atoms: _224  and  _225
REMARK   88  A    between atoms: _228  and  _230
REMARK   89  A    between atoms: _230  and  _231
REMARK   90  A    between atoms: _230  and  _233
REMARK   91  A    between atoms: _233  and  _234
REMARK   92  A    between atoms: _234  and  _235
REMARK   93  A    between atoms: _240  and  _242
REMARK   94  A    between atoms: _242  and  _243
REMARK   95  A    between atoms: _242  and  _245
REMARK   96  A    between atoms: _245  and  _246
REMARK   97  A    between atoms: _249  and  _251
REMARK   98  A    between atoms: _251  and  _252
REMARK   99  A    between atoms: _251  and  _254
REMARK  100  A    between atoms: _254  and  _255
REMARK  101  A    between atoms: _258  and  _260
REMARK  102  A    between atoms: _260  and  _261
REMARK  103  A    between atoms: _260  and  _263
REMARK  104  A    between atoms: _263  and  _264
REMARK  105  A    between atoms: _267  and  _269
REMARK  106  A    between atoms: _269  and  _270
REMARK  107  A    between atoms: _269  and  _272
REMARK  108  A    between atoms: _272  and  _273
REMARK  109  A    between atoms: _275  and  _277
REMARK  110  A    between atoms: _277  and  _278
REMARK  111  A    between atoms: _277  and  _280
REMARK  112  A    between atoms: _283  and  _285
REMARK  113  A    between atoms: _285  and  _286
REMARK  114  A    between atoms: _285  and  _288
REMARK  115  A    between atoms: _288  and  _289
REMARK  116  A    between atoms: _289  and  _290
REMARK  117  A    between atoms: _290  and  _291
REMARK  118  A    between atoms: _291  and  _292
REMARK  119  A    between atoms: _297  and  _298
REMARK  120  A    between atoms: _303  and  _305
REMARK  121  A    between atoms: _305  and  _306
REMARK  122  A    between atoms: _305  and  _308
REMARK  123  A    between atoms: _308  and  _309
REMARK  124  A    between atoms: _314  and  _316
REMARK  125  A    between atoms: _316  and  _317
REMARK  126  A    between atoms: _316  and  _319
REMARK  127  A    between atoms: _319  and  _320
REMARK  128  A    between atoms: _323  and  _325
REMARK  129  A    between atoms: _325  and  _326
REMARK  130  A    between atoms: _325  and  _328
REMARK  131  A    between atoms: _331  and  _333
REMARK  132  A    between atoms: _333  and  _334
REMARK  133  A    between atoms: _336  and  _338
REMARK  134  A    between atoms: _338  and  _339
REMARK  135  A    between atoms: _338  and  _341
REMARK  136  A    between atoms: _341  and  _342
REMARK  137  A    between atoms: _342  and  _343
REMARK  138  A    between atoms: _343  and  _344
REMARK  139  A    between atoms: _344  and  _345
REMARK  140  A    between atoms: _349  and  _351
REMARK  141  A    between atoms: _351  and  _352
REMARK  142  A    between atoms: _351  and  _354
REMARK  143  A    between atoms: _354  and  _355
REMARK  144  A    between atoms: _358  and  _360
REMARK  145  A    between atoms: _360  and  _361
REMARK  146  A    between atoms: _364  and  _366
REMARK  147  A    between atoms: _366  and  _367
REMARK  148  A    between atoms: _369  and  _371
REMARK  149  A    between atoms: _371  and  _372
REMARK  150  A    between atoms: _371  and  _374
REMARK  151  A    between atoms: _374  and  _375
REMARK  152  A    between atoms: _378  and  _380
REMARK  153  A    between atoms: _380  and  _381
REMARK  154  A    between atoms: _380  and  _383
REMARK  155  A    between atoms: _383  and  _384
REMARK  156  A    between atoms: _387  and  _389
REMARK  157  A    between atoms: _389  and  _390
REMARK  158  A    between atoms: _393  and  _395
REMARK  159  A    between atoms: _395  and  _396
REMARK  160  A    between atoms: _395  and  _398
REMARK  161  A    between atoms: _398  and  _399
REMARK  162  A    between atoms: _399  and  _400
REMARK  163  A    between atoms: _403  and  _405
REMARK  164  A    between atoms: _405  and  _406
REMARK  165  A    between atoms: _405  and  _408
REMARK  166  A    between atoms: _411  and  _413
REMARK  167  A    between atoms: _413  and  _414
REMARK  168  A    between atoms: _413  and  _416
REMARK  169  A    between atoms: _416  and  _417
REMARK  170  A    between atoms: _420  and  _422
REMARK  171  A    between atoms: _422  and  _423
REMARK  172  A    between atoms: _425  and  _427
REMARK  173  A    between atoms: _427  and  _428
REMARK  174  A    between atoms: _427  and  _430
REMARK  175  A    between atoms: _433  and  _435
REMARK  176  A    between atoms: _435  and  _436
REMARK  177  A    between atoms: _438  and  _440
REMARK  178  A    between atoms: _440  and  _441
REMARK  179  A    between atoms: _440  and  _443
REMARK  180  A    between atoms: _443  and  _444
REMARK  181  A    between atoms: _447  and  _449
REMARK  182  A    between atoms: _449  and  _450
REMARK  183  A    between atoms: _449  and  _452
REMARK  184  A    between atoms: _452  and  _453
REMARK  185  A    between atoms: _458  and  _460
REMARK  186  A    between atoms: _460  and  _461
REMARK  187  A    between atoms: _460  and  _463
REMARK  188  A    between atoms: _466  and  _468
REMARK  189  A    between atoms: _468  and  _469
REMARK  190  A    between atoms: _468  and  _471
REMARK  191  A    between atoms: _471  and  _472
REMARK  192  A    between atoms: _472  and  _473
REMARK  193  A    between atoms: _478  and  _480
REMARK  194  A    between atoms: _480  and  _481
REMARK  195  A    between atoms: _485  and  _486
REMARK  196  A    between atoms: _491  and  _493
REMARK  197  A    between atoms: _493  and  _494
REMARK  198  A    between atoms: _493  and  _496
REMARK  199  A    between atoms: _496  and  _497
REMARK  200  A    between atoms: _497  and  _498
REMARK  201  A    between atoms: _501  and  _503
REMARK  202  A    between atoms: _503  and  _504
REMARK  203  A    between atoms: _503  and  _506
REMARK  204  A    between atoms: _509  and  _511
REMARK  205  A    between atoms: _511  and  _512
REMARK  206  A    between atoms: _511  and  _514
REMARK  207  A    between atoms: _514  and  _515
REMARK  208  A    between atoms: _519  and  _520
REMARK  209  A    between atoms: _525  and  _527
REMARK  210  A    between atoms: _527  and  _528
REMARK  211  A    between atoms: _527  and  _530
REMARK  212  A    between atoms: _530  and  _531
REMARK  213  A    between atoms: _534  and  _536
REMARK  214  A    between atoms: _536  and  _537
REMARK  215  A    between atoms: _540  and  _542
REMARK  216  A    between atoms: _542  and  _543
REMARK  217  A    between atoms: _542  and  _545
REMARK  218  A    between atoms: _545  and  _546
REMARK  219  A    between atoms: _549  and  _551
REMARK  220  A    between atoms: _551  and  _552
REMARK  221  A    between atoms: _551  and  _554
REMARK  222  A    between atoms: _554  and  _555
REMARK  223  A    between atoms: _557  and  _559
REMARK  224  A    between atoms: _559  and  _560
REMARK  225  A    between atoms: _562  and  _564
REMARK  226  A    between atoms: _564  and  _565
REMARK  227  A    between atoms: _564  and  _567
REMARK  228  A    between atoms: _567  and  _568
REMARK  229  A    between atoms: _571  and  _573
REMARK  230  A    between atoms: _573  and  _574
REMARK  231  A    between atoms: _573  and  _576
REMARK                            x       y       z     vdW  Elec       q    Type
REMARK                         _______ _______ _______ _____ _____    ______ ____
ROOT
ATOM      1  O   HOH     1      -3.252  -0.625  -1.267  0.00  0.00    +0.000 OA
ENDROOT
TORSDOF 0
REMARK  Name = ../refined-set-2016/4xu2/4xu2_pocket.pdb
REMARK  231 active torsions:
REMARK  status: ('A' for Active; 'I' for Inactive)
REMARK    1  A    between atoms: _1  and  _3
REMARK    2  A    between atoms: _3  and  _4
REMARK    3  A    between atoms: _3  and  _6
REMARK    4  A    between atoms: _6  and  _7
REMARK    5  A    between atoms: _10  and  _12
REMARK    6  A    between atoms: _12  and  _13
REMARK    7  A    between atoms: _15  and  _17
REMARK    8  A    between atoms: _17  and  _18
REMARK    9  A    between atoms: _17  and  _20
REMARK   10  A    between atoms: _20  and  _21
REMARK   11  A    between atoms: _23  and  _25
REMARK   12  A    between atoms: _25  and  _26
REMARK   13  A    between atoms: _25  and  _28
REMARK   14  A    between atoms: _28  and  _29
REMARK   15  A    between atoms: _32  and  _34
REMARK   16  A    between atoms: _34  and  _35
REMARK   17  A    between atoms: _34  and  _37
REMARK   18  A    between atoms: _37  and  _38
REMARK   19  A    between atoms: _43  and  _45
REMARK   20  A    between atoms: _45  and  _46
REMARK   21  A    between atoms: _49  and  _51
REMARK   22  A    between atoms: _51  and  _52
REMARK   23  A    between atoms: _51  and  _54
REMARK   24  A    between atoms: _54  and  _55
REMARK   25  A    between atoms: _58  and  _60
REMARK   26  A    between atoms: _60  and  _61
REMARK   27  A    between atoms: _60  and  _63
REMARK   28  A    between atoms: _63  and  _64
REMARK   29  A    between atoms: _67  and  _69
REMARK   30  A    between atoms: _69  and  _70
REMARK   31  A    between atoms: _69  and  _72
REMARK   32  A    between atoms: _72  and  _73
REMARK   33  A    between atoms: _76  and  _78
REMARK   34  A    between atoms: _78  and  _79
REMARK   35  A    between atoms: _82  and  _84
REMARK   36  A    between atoms: _84  and  _85
REMARK   37  A    between atoms: _84  and  _87
REMARK   38  A    between atoms: _87  and  _88
REMARK   39  A    between atoms: _88  and  _89
REMARK   40  A    between atoms: _94  and  _96
REMARK   41  A    between atoms: _96  and  _97
REMARK   42  A    between atoms: _96  and  _99
REMARK   43  A    between atoms: _99  and  _100
REMARK   44  A    between atoms: _103  and  _105
REMARK   45  A    between atoms: _105  and  _106
REMARK   46  A    between atoms: _109  and  _111
REMARK   47  A    between atoms: _111  and  _112
REMARK   48  A    between atoms: _114  and  _116
REMARK   49  A    between atoms: _116  and  _117
REMARK   50  A    between atoms: _116  and  _119
REMARK   51  A    between atoms: _119  and  _120
REMARK   52  A    between atoms: _120  and  _121
REMARK   53  A    between atoms: _121  and  _122
REMARK   54  A    between atoms: _131  and  _133
REMARK   55  A    between atoms: _133  and  _134
REMARK   56  A    between atoms: _136  and  _138
REMARK   57  A    between atoms: _138  and  _139
REMARK   58  A    between atoms: _138  and  _141
REMARK   59  A    between atoms: _141  and  _142
REMARK   60  A    between atoms: _142  and  _143
REMARK   61  A    between atoms: _143  and  _144
REMARK   62  A    between atoms: _153  and  _155
REMARK   63  A    between atoms: _155  and  _156
REMARK   64  A    between atoms: _155  and  _158
REMARK   65  A    between atoms: _158  and  _159
REMARK   66  A    between atoms: _164  and  _166
REMARK   67  A    between atoms: _166  and  _167
REMARK   68  A    between atoms: _169  and  _171
REMARK   69  A    between atoms: _171  and  _172
REMARK   70  A    between atoms: _171  and  _174
REMARK   71  A    between atoms: _174  and  _175
REMARK   72  A    between atoms: _175  and  _176
REMARK   73  A    between atoms: _176  and  _177
REMARK   74  A    between atoms: _186  and  _188
REMARK   75  A    between atoms: _188  and  _189
REMARK   76  A    between atoms: _191  and  _193
REMARK   77  A    between atoms: _193  and  _194
REMARK   78  A    between atoms: _193  and  _196
REMARK   79  A    between atoms: _196  and  _197
REMARK   80  A    between atoms: _207  and  _209
REMARK   81  A    between atoms: _209  and  _210
REMARK   82  A    between atoms: _213  and  _215
REMARK   83  A    between atoms: _215  and  _216
REMARK   84  A    between atoms: _219  and  _221
REMARK   85  A    between atoms: _221  and  _222
REMARK   86  A    between atoms: _221  and  _224
REMARK   87  A    between atoms: _224  and  _225
REMARK   88  A    between atoms: _228  and  _230
REMARK   89  A    between atoms: _230  and  _231
REMARK   90  A    between atoms: _230  and  _233
REMARK   91  A    between atoms: _233  and  _234
REMARK   92  A    between atoms: _234  and  _235
REMARK   93  A    between atoms: _240  and  _242
REMARK   94  A    between atoms: _242  and  _243
REMARK   95  A    between atoms: _242  and  _245
REMARK   96  A    between atoms: _245  and  _246
REMARK   97  A    between atoms: _249  and  _251
REMARK   98  A    between atoms: _251  and  _252
REMARK   99  A    between atoms: _251  and  _254
REMARK  100  A    between atoms: _254  and  _255
REMARK  101  A    between atoms: _258  and  _260
REMARK  102  A    between atoms: _260  and  _261
REMARK  103  A    between atoms: _260  and  _263
REMARK  104  A    between atoms: _263  and  _264
REMARK  105  A    between atoms: _267  and  _269
REMARK  106  A    between atoms: _269  and  _270
REMARK  107  A    between atoms: _269  and  _272
REMARK  108  A    between atoms: _272  and  _273
REMARK  109  A    between atoms: _275  and  _277
REMARK  110  A    between atoms: _277  and  _278
REMARK  111  A    between atoms: _277  and  _280
REMARK  112  A    between atoms: _283  and  _285
REMARK  113  A    between atoms: _285  and  _286
REMARK  114  A    between atoms: _285  and  _288
REMARK  115  A    between atoms: _288  and  _289
REMARK  116  A    between atoms: _289  and  _290
REMARK  117  A    between atoms: _290  and  _291
REMARK  118  A    between atoms: _291  and  _292
REMARK  119  A    between atoms: _297  and  _298
REMARK  120  A    between atoms: _303  and  _305
REMARK  121  A    between atoms: _305  and  _306
REMARK  122  A    between atoms: _305  and  _308
REMARK  123  A    between atoms: _308  and  _309
REMARK  124  A    between atoms: _314  and  _316
REMARK  125  A    between atoms: _316  and  _317
REMARK  126  A    between atoms: _316  and  _319
REMARK  127  A    between atoms: _319  and  _320
REMARK  128  A    between atoms: _323  and  _325
REMARK  129  A    between atoms: _325  and  _326
REMARK  130  A    between atoms: _325  and  _328
REMARK  131  A    between atoms: _331  and  _333
REMARK  132  A    between atoms: _333  and  _334
REMARK  133  A    between atoms: _336  and  _338
REMARK  134  A    between atoms: _338  and  _339
REMARK  135  A    between atoms: _338  and  _341
REMARK  136  A    between atoms: _341  and  _342
REMARK  137  A    between atoms: _342  and  _343
REMARK  138  A    between atoms: _343  and  _344
REMARK  139  A    between atoms: _344  and  _345
REMARK  140  A    between atoms: _349  and  _351
REMARK  141  A    between atoms: _351  and  _352
REMARK  142  A    between atoms: _351  and  _354
REMARK  143  A    between atoms: _354  and  _355
REMARK  144  A    between atoms: _358  and  _360
REMARK  145  A    between atoms: _360  and  _361
REMARK  146  A    between atoms: _364  and  _366
REMARK  147  A    between atoms: _366  and  _367
REMARK  148  A    between atoms: _369  and  _371
REMARK  149  A    between atoms: _371  and  _372
REMARK  150  A    between atoms: _371  and  _374
REMARK  151  A    between atoms: _374  and  _375
REMARK  152  A    between atoms: _378  and  _380
REMARK  153  A    between atoms: _380  and  _381
REMARK  154  A    between atoms: _380  and  _383
REMARK  155  A    between atoms: _383  and  _384
REMARK  156  A    between atoms: _387  and  _389
REMARK  157  A    between atoms: _389  and  _390
REMARK  158  A    between atoms: _393  and  _395
REMARK  159  A    between atoms: _395  and  _396
REMARK  160  A    between atoms: _395  and  _398
REMARK  161  A    between atoms: _398  and  _399
REMARK  162  A    between atoms: _399  and  _400
REMARK  163  A    between atoms: _403  and  _405
REMARK  164  A    between atoms: _405  and  _406
REMARK  165  A    between atoms: _405  and  _408
REMARK  166  A    between atoms: _411  and  _413
REMARK  167  A    between atoms: _413  and  _414
REMARK  168  A    between atoms: _413  and  _416
REMARK  169  A    between atoms: _416  and  _417
REMARK  170  A    between atoms: _420  and  _422
REMARK  171  A    between atoms: _422  and  _423
REMARK  172  A    between atoms: _425  and  _427
REMARK  173  A    between atoms: _427  and  _428
REMARK  174  A    between atoms: _427  and  _430
REMARK  175  A    between atoms: _433  and  _435
REMARK  176  A    between atoms: _435  and  _436
REMARK  177  A    between atoms: _438  and  _440
REMARK  178  A    between atoms: _440  and  _441
REMARK  179  A    between atoms: _440  and  _443
REMARK  180  A    between atoms: _443  and  _444
REMARK  181  A    between atoms: _447  and  _449
REMARK  182  A    between atoms: _449  and  _450
REMARK  183  A    between atoms: _449  and  _452
REMARK  184  A    between atoms: _452  and  _453
REMARK  185  A    between atoms: _458  and  _460
REMARK  186  A    between atoms: _460  and  _461
REMARK  187  A    between atoms: _460  and  _463
REMARK  188  A    between atoms: _466  and  _468
REMARK  189  A    between atoms: _468  and  _469
REMARK  190  A    between atoms: _468  and  _471
REMARK  191  A    between atoms: _471  and  _472
REMARK  192  A    between atoms: _472  and  _473
REMARK  193  A    between atoms: _478  and  _480
REMARK  194  A    between atoms: _480  and  _481
REMARK  195  A    between atoms: _485  and  _486
REMARK  196  A    between atoms: _491  and  _493
REMARK  197  A    between atoms: _493  and  _494
REMARK  198  A    between atoms: _493  and  _496
REMARK  199  A    between atoms: _496  and  _497
REMARK  200  A    between atoms: _497  and  _498
REMARK  201  A    between atoms: _501  and  _503
REMARK  202  A    between atoms: _503  and  _504
REMARK  203  A    between atoms: _503  and  _506
REMARK  204  A    between atoms: _509  and  _511
REMARK  205  A    between atoms: _511  and  _512
REMARK  206  A    between atoms: _511  and  _514
REMARK  207  A    between atoms: _514  and  _515
REMARK  208  A    between atoms: _519  and  _520
REMARK  209  A    between atoms: _525  and  _527
REMARK  210  A    between atoms: _527  and  _528
REMARK  211  A    between atoms: _527  and  _530
REMARK  212  A    between atoms: _530  and  _531
REMARK  213  A    between atoms: _534  and  _536
REMARK  214  A    between atoms: _536  and  _537
REMARK  215  A    between atoms: _540  and  _542
REMARK  216  A    between atoms: _542  and  _543
REMARK  217  A    between atoms: _542  and  _545
REMARK  218  A    between atoms: _545  and  _546
REMARK  219  A    between atoms: _549  and  _551
REMARK  220  A    between atoms: _551  and  _552
REMARK  221  A    between atoms: _551  and  _554
REMARK  222  A    between atoms: _554  and  _555
REMARK  223  A    between atoms: _557  and  _559
REMARK  224  A    between atoms: _559  and  _560
REMARK  225  A    between atoms: _562  and  _564
REMARK  226  A    between atoms: _564  and  _565
REMARK  227  A    between atoms: _564  and  _567
REMARK  228  A    between atoms: _567  and  _568
REMARK  229  A    between atoms: _571  and  _573
REMARK  230  A    between atoms: _573  and  _574
REMARK  231  A    between atoms: _573  and  _576
REMARK                            x       y       z     vdW  Elec       q    Type
REMARK                         _______ _______ _______ _____ _____    ______ ____
ROOT
ATOM      1  O   HOH     1       6.967 -10.392  19.447  0.00  0.00    +0.000 OA
ENDROOT
TORSDOF 0
REMARK  Name = ../refined-set-2016/4xu2/4xu2_pocket.pdb
REMARK  231 active torsions:
REMARK  status: ('A' for Active; 'I' for Inactive)
REMARK    1  A    between atoms: _1  and  _3
REMARK    2  A    between atoms: _3  and  _4
REMARK    3  A    between atoms: _3  and  _6
REMARK    4  A    between atoms: _6  and  _7
REMARK    5  A    between atoms: _10  and  _12
REMARK    6  A    between atoms: _12  and  _13
REMARK    7  A    between atoms: _15  and  _17
REMARK    8  A    between atoms: _17  and  _18
REMARK    9  A    between atoms: _17  and  _20
REMARK   10  A    between atoms: _20  and  _21
REMARK   11  A    between atoms: _23  and  _25
REMARK   12  A    between atoms: _25  and  _26
REMARK   13  A    between atoms: _25  and  _28
REMARK   14  A    between atoms: _28  and  _29
REMARK   15  A    between atoms: _32  and  _34
REMARK   16  A    between atoms: _34  and  _35
REMARK   17  A    between atoms: _34  and  _37
REMARK   18  A    between atoms: _37  and  _38
REMARK   19  A    between atoms: _43  and  _45
REMARK   20  A    between atoms: _45  and  _46
REMARK   21  A    between atoms: _49  and  _51
REMARK   22  A    between atoms: _51  and  _52
REMARK   23  A    between atoms: _51  and  _54
REMARK   24  A    between atoms: _54  and  _55
REMARK   25  A    between atoms: _58  and  _60
REMARK   26  A    between atoms: _60  and  _61
REMARK   27  A    between atoms: _60  and  _63
REMARK   28  A    between atoms: _63  and  _64
REMARK   29  A    between atoms: _67  and  _69
REMARK   30  A    between atoms: _69  and  _70
REMARK   31  A    between atoms: _69  and  _72
REMARK   32  A    between atoms: _72  and  _73
REMARK   33  A    between atoms: _76  and  _78
REMARK   34  A    between atoms: _78  and  _79
REMARK   35  A    between atoms: _82  and  _84
REMARK   36  A    between atoms: _84  and  _85
REMARK   37  A    between atoms: _84  and  _87
REMARK   38  A    between atoms: _87  and  _88
REMARK   39  A    between atoms: _88  and  _89
REMARK   40  A    between atoms: _94  and  _96
REMARK   41  A    between atoms: _96  and  _97
REMARK   42  A    between atoms: _96  and  _99
REMARK   43  A    between atoms: _99  and  _100
REMARK   44  A    between atoms: _103  and  _105
REMARK   45  A    between atoms: _105  and  _106
REMARK   46  A    between atoms: _109  and  _111
REMARK   47  A    between atoms: _111  and  _112
REMARK   48  A    between atoms: _114  and  _116
REMARK   49  A    between atoms: _116  and  _117
REMARK   50  A    between atoms: _116  and  _119
REMARK   51  A    between atoms: _119  and  _120
REMARK   52  A    between atoms: _120  and  _121
REMARK   53  A    between atoms: _121  and  _122
REMARK   54  A    between atoms: _131  and  _133
REMARK   55  A    between atoms: _133  and  _134
REMARK   56  A    between atoms: _136  and  _138
REMARK   57  A    between atoms: _138  and  _139
REMARK   58  A    between atoms: _138  and  _141
REMARK   59  A    between atoms: _141  and  _142
REMARK   60  A    between atoms: _142  and  _143
REMARK   61  A    between atoms: _143  and  _144
REMARK   62  A    between atoms: _153  and  _155
REMARK   63  A    between atoms: _155  and  _156
REMARK   64  A    between atoms: _155  and  _158
REMARK   65  A    between atoms: _158  and  _159
REMARK   66  A    between atoms: _164  and  _166
REMARK   67  A    between atoms: _166  and  _167
REMARK   68  A    between atoms: _169  and  _171
REMARK   69  A    between atoms: _171  and  _172
REMARK   70  A    between atoms: _171  and  _174
REMARK   71  A    between atoms: _174  and  _175
REMARK   72  A    between atoms: _175  and  _176
REMARK   73  A    between atoms: _176  and  _177
REMARK   74  A    between atoms: _186  and  _188
REMARK   75  A    between atoms: _188  and  _189
REMARK   76  A    between atoms: _191  and  _193
REMARK   77  A    between atoms: _193  and  _194
REMARK   78  A    between atoms: _193  and  _196
REMARK   79  A    between atoms: _196  and  _197
REMARK   80  A    between atoms: _207  and  _209
REMARK   81  A    between atoms: _209  and  _210
REMARK   82  A    between atoms: _213  and  _215
REMARK   83  A    between atoms: _215  and  _216
REMARK   84  A    between atoms: _219  and  _221
REMARK   85  A    between atoms: _221  and  _222
REMARK   86  A    between atoms: _221  and  _224
REMARK   87  A    between atoms: _224  and  _225
REMARK   88  A    between atoms: _228  and  _230
REMARK   89  A    between atoms: _230  and  _231
REMARK   90  A    between atoms: _230  and  _233
REMARK   91  A    between atoms: _233  and  _234
REMARK   92  A    between atoms: _234  and  _235
REMARK   93  A    between atoms: _240  and  _242
REMARK   94  A    between atoms: _242  and  _243
REMARK   95  A    between atoms: _242  and  _245
REMARK   96  A    between atoms: _245  and  _246
REMARK   97  A    between atoms: _249  and  _251
REMARK   98  A    between atoms: _251  and  _252
REMARK   99  A    between atoms: _251  and  _254
REMARK  100  A    between atoms: _254  and  _255
REMARK  101  A    between atoms: _258  and  _260
REMARK  102  A    between atoms: _260  and  _261
REMARK  103  A    between atoms: _260  and  _263
REMARK  104  A    between atoms: _263  and  _264
REMARK  105  A    between atoms: _267  and  _269
REMARK  106  A    between atoms: _269  and  _270
REMARK  107  A    between atoms: _269  and  _272
REMARK  108  A    between atoms: _272  and  _273
REMARK  109  A    between atoms: _275  and  _277
REMARK  110  A    between atoms: _277  and  _278
REMARK  111  A    between atoms: _277  and  _280
REMARK  112  A    between atoms: _283  and  _285
REMARK  113  A    between atoms: _285  and  _286
REMARK  114  A    between atoms: _285  and  _288
REMARK  115  A    between atoms: _288  and  _289
REMARK  116  A    between atoms: _289  and  _290
REMARK  117  A    between atoms: _290  and  _291
REMARK  118  A    between atoms: _291  and  _292
REMARK  119  A    between atoms: _297  and  _298
REMARK  120  A    between atoms: _303  and  _305
REMARK  121  A    between atoms: _305  and  _306
REMARK  122  A    between atoms: _305  and  _308
REMARK  123  A    between atoms: _308  and  _309
REMARK  124  A    between atoms: _314  and  _316
REMARK  125  A    between atoms: _316  and  _317
REMARK  126  A    between atoms: _316  and  _319
REMARK  127  A    between atoms: _319  and  _320
REMARK  128  A    between atoms: _323  and  _325
REMARK  129  A    between atoms: _325  and  _326
REMARK  130  A    between atoms: _325  and  _328
REMARK  131  A    between atoms: _331  and  _333
REMARK  132  A    between atoms: _333  and  _334
REMARK  133  A    between atoms: _336  and  _338
REMARK  134  A    between atoms: _338  and  _339
REMARK  135  A    between atoms: _338  and  _341
REMARK  136  A    between atoms: _341  and  _342
REMARK  137  A    between atoms: _342  and  _343
REMARK  138  A    between atoms: _343  and  _344
REMARK  139  A    between atoms: _344  and  _345
REMARK  140  A    between atoms: _349  and  _351
REMARK  141  A    between atoms: _351  and  _352
REMARK  142  A    between atoms: _351  and  _354
REMARK  143  A    between atoms: _354  and  _355
REMARK  144  A    between atoms: _358  and  _360
REMARK  145  A    between atoms: _360  and  _361
REMARK  146  A    between atoms: _364  and  _366
REMARK  147  A    between atoms: _366  and  _367
REMARK  148  A    between atoms: _369  and  _371
REMARK  149  A    between atoms: _371  and  _372
REMARK  150  A    between atoms: _371  and  _374
REMARK  151  A    between atoms: _374  and  _375
REMARK  152  A    between atoms: _378  and  _380
REMARK  153  A    between atoms: _380  and  _381
REMARK  154  A    between atoms: _380  and  _383
REMARK  155  A    between atoms: _383  and  _384
REMARK  156  A    between atoms: _387  and  _389
REMARK  157  A    between atoms: _389  and  _390
REMARK  158  A    between atoms: _393  and  _395
REMARK  159  A    between atoms: _395  and  _396
REMARK  160  A    between atoms: _395  and  _398
REMARK  161  A    between atoms: _398  and  _399
REMARK  162  A    between atoms: _399  and  _400
REMARK  163  A    between atoms: _403  and  _405
REMARK  164  A    between atoms: _405  and  _406
REMARK  165  A    between atoms: _405  and  _408
REMARK  166  A    between atoms: _411  and  _413
REMARK  167  A    between atoms: _413  and  _414
REMARK  168  A    between atoms: _413  and  _416
REMARK  169  A    between atoms: _416  and  _417
REMARK  170  A    between atoms: _420  and  _422
REMARK  171  A    between atoms: _422  and  _423
REMARK  172  A    between atoms: _425  and  _427
REMARK  173  A    between atoms: _427  and  _428
REMARK  174  A    between atoms: _427  and  _430
REMARK  175  A    between atoms: _433  and  _435
REMARK  176  A    between atoms: _435  and  _436
REMARK  177  A    between atoms: _438  and  _440
REMARK  178  A    between atoms: _440  and  _441
REMARK  179  A    between atoms: _440  and  _443
REMARK  180  A    between atoms: _443  and  _444
REMARK  181  A    between atoms: _447  and  _449
REMARK  182  A    between atoms: _449  and  _450
REMARK  183  A    between atoms: _449  and  _452
REMARK  184  A    between atoms: _452  and  _453
REMARK  185  A    between atoms: _458  and  _460
REMARK  186  A    between atoms: _460  and  _461
REMARK  187  A    between atoms: _460  and  _463
REMARK  188  A    between atoms: _466  and  _468
REMARK  189  A    between atoms: _468  and  _469
REMARK  190  A    between atoms: _468  and  _471
REMARK  191  A    between atoms: _471  and  _472
REMARK  192  A    between atoms: _472  and  _473
REMARK  193  A    between atoms: _478  and  _480
REMARK  194  A    between atoms: _480  and  _481
REMARK  195  A    between atoms: _485  and  _486
REMARK  196  A    between atoms: _491  and  _493
REMARK  197  A    between atoms: _493  and  _494
REMARK  198  A    between atoms: _493  and  _496
REMARK  199  A    between atoms: _496  and  _497
REMARK  200  A    between atoms: _497  and  _498
REMARK  201  A    between atoms: _501  and  _503
REMARK  202  A    between atoms: _503  and  _504
REMARK  203  A    between atoms: _503  and  _506
REMARK  204  A    between atoms: _509  and  _511
REMARK  205  A    between atoms: _511  and  _512
REMARK  206  A    between atoms: _511  and  _514
REMARK  207  A    between atoms: _514  and  _515
REMARK  208  A    between atoms: _519  and  _520
REMARK  209  A    between atoms: _525  and  _527
REMARK  210  A    between atoms: _527  and  _528
REMARK  211  A    between atoms: _527  and  _530
REMARK  212  A    between atoms: _530  and  _531
REMARK  213  A    between atoms: _534  and  _536
REMARK  214  A    between atoms: _536  and  _537
REMARK  215  A    between atoms: _540  and  _542
REMARK  216  A    between atoms: _542  and  _543
REMARK  217  A    between atoms: _542  and  _545
REMARK  218  A    between atoms: _545  and  _546
REMARK  219  A    between atoms: _549  and  _551
REMARK  220  A    between atoms: _551  and  _552
REMARK  221  A    between atoms: _551  and  _554
REMARK  222  A    between atoms: _554  and  _555
REMARK  223  A    between atoms: _557  and  _559
REMARK  224  A    between atoms: _559  and  _560
REMARK  225  A    between atoms: _562  and  _564
REMARK  226  A    between atoms: _564  and  _565
REMARK  227  A    between atoms: _564  and  _567
REMARK  228  A    between atoms: _567  and  _568
REMARK  229  A    between atoms: _571  and  _573
REMARK  230  A    between atoms: _573  and  _574
REMARK  231  A    between atoms: _573  and  _576
REMARK                            x       y       z     vdW  Elec       q    Type
REMARK                         _______ _______ _______ _____ _____    ______ ____
ROOT
ATOM      1  O   HOH     1      -8.238   0.773   8.762  0.00  0.00    +0.000 OA
ENDROOT
TORSDOF 0
REMARK  Name = ../refined-set-2016/4xu2/4xu2_pocket.pdb
REMARK  231 active torsions:
REMARK  status: ('A' for Active; 'I' for Inactive)
REMARK    1  A    between atoms: _1  and  _3
REMARK    2  A    between atoms: _3  and  _4
REMARK    3  A    between atoms: _3  and  _6
REMARK    4  A    between atoms: _6  and  _7
REMARK    5  A    between atoms: _10  and  _12
REMARK    6  A    between atoms: _12  and  _13
REMARK    7  A    between atoms: _15  and  _17
REMARK    8  A    between atoms: _17  and  _18
REMARK    9  A    between atoms: _17  and  _20
REMARK   10  A    between atoms: _20  and  _21
REMARK   11  A    between atoms: _23  and  _25
REMARK   12  A    between atoms: _25  and  _26
REMARK   13  A    between atoms: _25  and  _28
REMARK   14  A    between atoms: _28  and  _29
REMARK   15  A    between atoms: _32  and  _34
REMARK   16  A    between atoms: _34  and  _35
REMARK   17  A    between atoms: _34  and  _37
REMARK   18  A    between atoms: _37  and  _38
REMARK   19  A    between atoms: _43  and  _45
REMARK   20  A    between atoms: _45  and  _46
REMARK   21  A    between atoms: _49  and  _51
REMARK   22  A    between atoms: _51  and  _52
REMARK   23  A    between atoms: _51  and  _54
REMARK   24  A    between atoms: _54  and  _55
REMARK   25  A    between atoms: _58  and  _60
REMARK   26  A    between atoms: _60  and  _61
REMARK   27  A    between atoms: _60  and  _63
REMARK   28  A    between atoms: _63  and  _64
REMARK   29  A    between atoms: _67  and  _69
REMARK   30  A    between atoms: _69  and  _70
REMARK   31  A    between atoms: _69  and  _72
REMARK   32  A    between atoms: _72  and  _73
REMARK   33  A    between atoms: _76  and  _78
REMARK   34  A    between atoms: _78  and  _79
REMARK   35  A    between atoms: _82  and  _84
REMARK   36  A    between atoms: _84  and  _85
REMARK   37  A    between atoms: _84  and  _87
REMARK   38  A    between atoms: _87  and  _88
REMARK   39  A    between atoms: _88  and  _89
REMARK   40  A    between atoms: _94  and  _96
REMARK   41  A    between atoms: _96  and  _97
REMARK   42  A    between atoms: _96  and  _99
REMARK   43  A    between atoms: _99  and  _100
REMARK   44  A    between atoms: _103  and  _105
REMARK   45  A    between atoms: _105  and  _106
REMARK   46  A    between atoms: _109  and  _111
REMARK   47  A    between atoms: _111  and  _112
REMARK   48  A    between atoms: _114  and  _116
REMARK   49  A    between atoms: _116  and  _117
REMARK   50  A    between atoms: _116  and  _119
REMARK   51  A    between atoms: _119  and  _120
REMARK   52  A    between atoms: _120  and  _121
REMARK   53  A    between atoms: _121  and  _122
REMARK   54  A    between atoms: _131  and  _133
REMARK   55  A    between atoms: _133  and  _134
REMARK   56  A    between atoms: _136  and  _138
REMARK   57  A    between atoms: _138  and  _139
REMARK   58  A    between atoms: _138  and  _141
REMARK   59  A    between atoms: _141  and  _142
REMARK   60  A    between atoms: _142  and  _143
REMARK   61  A    between atoms: _143  and  _144
REMARK   62  A    between atoms: _153  and  _155
REMARK   63  A    between atoms: _155  and  _156
REMARK   64  A    between atoms: _155  and  _158
REMARK   65  A    between atoms: _158  and  _159
REMARK   66  A    between atoms: _164  and  _166
REMARK   67  A    between atoms: _166  and  _167
REMARK   68  A    between atoms: _169  and  _171
REMARK   69  A    between atoms: _171  and  _172
REMARK   70  A    between atoms: _171  and  _174
REMARK   71  A    between atoms: _174  and  _175
REMARK   72  A    between atoms: _175  and  _176
REMARK   73  A    between atoms: _176  and  _177
REMARK   74  A    between atoms: _186  and  _188
REMARK   75  A    between atoms: _188  and  _189
REMARK   76  A    between atoms: _191  and  _193
REMARK   77  A    between atoms: _193  and  _194
REMARK   78  A    between atoms: _193  and  _196
REMARK   79  A    between atoms: _196  and  _197
REMARK   80  A    between atoms: _207  and  _209
REMARK   81  A    between atoms: _209  and  _210
REMARK   82  A    between atoms: _213  and  _215
REMARK   83  A    between atoms: _215  and  _216
REMARK   84  A    between atoms: _219  and  _221
REMARK   85  A    between atoms: _221  and  _222
REMARK   86  A    between atoms: _221  and  _224
REMARK   87  A    between atoms: _224  and  _225
REMARK   88  A    between atoms: _228  and  _230
REMARK   89  A    between atoms: _230  and  _231
REMARK   90  A    between atoms: _230  and  _233
REMARK   91  A    between atoms: _233  and  _234
REMARK   92  A    between atoms: _234  and  _235
REMARK   93  A    between atoms: _240  and  _242
REMARK   94  A    between atoms: _242  and  _243
REMARK   95  A    between atoms: _242  and  _245
REMARK   96  A    between atoms: _245  and  _246
REMARK   97  A    between atoms: _249  and  _251
REMARK   98  A    between atoms: _251  and  _252
REMARK   99  A    between atoms: _251  and  _254
REMARK  100  A    between atoms: _254  and  _255
REMARK  101  A    between atoms: _258  and  _260
REMARK  102  A    between atoms: _260  and  _261
REMARK  103  A    between atoms: _260  and  _263
REMARK  104  A    between atoms: _263  and  _264
REMARK  105  A    between atoms: _267  and  _269
REMARK  106  A    between atoms: _269  and  _270
REMARK  107  A    between atoms: _269  and  _272
REMARK  108  A    between atoms: _272  and  _273
REMARK  109  A    between atoms: _275  and  _277
REMARK  110  A    between atoms: _277  and  _278
REMARK  111  A    between atoms: _277  and  _280
REMARK  112  A    between atoms: _283  and  _285
REMARK  113  A    between atoms: _285  and  _286
REMARK  114  A    between atoms: _285  and  _288
REMARK  115  A    between atoms: _288  and  _289
REMARK  116  A    between atoms: _289  and  _290
REMARK  117  A    between atoms: _290  and  _291
REMARK  118  A    between atoms: _291  and  _292
REMARK  119  A    between atoms: _297  and  _298
REMARK  120  A    between atoms: _303  and  _305
REMARK  121  A    between atoms: _305  and  _306
REMARK  122  A    between atoms: _305  and  _308
REMARK  123  A    between atoms: _308  and  _309
REMARK  124  A    between atoms: _314  and  _316
REMARK  125  A    between atoms: _316  and  _317
REMARK  126  A    between atoms: _316  and  _319
REMARK  127  A    between atoms: _319  and  _320
REMARK  128  A    between atoms: _323  and  _325
REMARK  129  A    between atoms: _325  and  _326
REMARK  130  A    between atoms: _325  and  _328
REMARK  131  A    between atoms: _331  and  _333
REMARK  132  A    between atoms: _333  and  _334
REMARK  133  A    between atoms: _336  and  _338
REMARK  134  A    between atoms: _338  and  _339
REMARK  135  A    between atoms: _338  and  _341
REMARK  136  A    between atoms: _341  and  _342
REMARK  137  A    between atoms: _342  and  _343
REMARK  138  A    between atoms: _343  and  _344
REMARK  139  A    between atoms: _344  and  _345
REMARK  140  A    between atoms: _349  and  _351
REMARK  141  A    between atoms: _351  and  _352
REMARK  142  A    between atoms: _351  and  _354
REMARK  143  A    between atoms: _354  and  _355
REMARK  144  A    between atoms: _358  and  _360
REMARK  145  A    between atoms: _360  and  _361
REMARK  146  A    between atoms: _364  and  _366
REMARK  147  A    between atoms: _366  and  _367
REMARK  148  A    between atoms: _369  and  _371
REMARK  149  A    between atoms: _371  and  _372
REMARK  150  A    between atoms: _371  and  _374
REMARK  151  A    between atoms: _374  and  _375
REMARK  152  A    between atoms: _378  and  _380
REMARK  153  A    between atoms: _380  and  _381
REMARK  154  A    between atoms: _380  and  _383
REMARK  155  A    between atoms: _383  and  _384
REMARK  156  A    between atoms: _387  and  _389
REMARK  157  A    between atoms: _389  and  _390
REMARK  158  A    between atoms: _393  and  _395
REMARK  159  A    between atoms: _395  and  _396
REMARK  160  A    between atoms: _395  and  _398
REMARK  161  A    between atoms: _398  and  _399
REMARK  162  A    between atoms: _399  and  _400
REMARK  163  A    between atoms: _403  and  _405
REMARK  164  A    between atoms: _405  and  _406
REMARK  165  A    between atoms: _405  and  _408
REMARK  166  A    between atoms: _411  and  _413
REMARK  167  A    between atoms: _413  and  _414
REMARK  168  A    between atoms: _413  and  _416
REMARK  169  A    between atoms: _416  and  _417
REMARK  170  A    between atoms: _420  and  _422
REMARK  171  A    between atoms: _422  and  _423
REMARK  172  A    between atoms: _425  and  _427
REMARK  173  A    between atoms: _427  and  _428
REMARK  174  A    between atoms: _427  and  _430
REMARK  175  A    between atoms: _433  and  _435
REMARK  176  A    between atoms: _435  and  _436
REMARK  177  A    between atoms: _438  and  _440
REMARK  178  A    between atoms: _440  and  _441
REMARK  179  A    between atoms: _440  and  _443
REMARK  180  A    between atoms: _443  and  _444
REMARK  181  A    between atoms: _447  and  _449
REMARK  182  A    between atoms: _449  and  _450
REMARK  183  A    between atoms: _449  and  _452
REMARK  184  A    between atoms: _452  and  _453
REMARK  185  A    between atoms: _458  and  _460
REMARK  186  A    between atoms: _460  and  _461
REMARK  187  A    between atoms: _460  and  _463
REMARK  188  A    between atoms: _466  and  _468
REMARK  189  A    between atoms: _468  and  _469
REMARK  190  A    between atoms: _468  and  _471
REMARK  191  A    between atoms: _471  and  _472
REMARK  192  A    between atoms: _472  and  _473
REMARK  193  A    between atoms: _478  and  _480
REMARK  194  A    between atoms: _480  and  _481
REMARK  195  A    between atoms: _485  and  _486
REMARK  196  A    between atoms: _491  and  _493
REMARK  197  A    between atoms: _493  and  _494
REMARK  198  A    between atoms: _493  and  _496
REMARK  199  A    between atoms: _496  and  _497
REMARK  200  A    between atoms: _497  and  _498
REMARK  201  A    between atoms: _501  and  _503
REMARK  202  A    between atoms: _503  and  _504
REMARK  203  A    between atoms: _503  and  _506
REMARK  204  A    between atoms: _509  and  _511
REMARK  205  A    between atoms: _511  and  _512
REMARK  206  A    between atoms: _511  and  _514
REMARK  207  A    between atoms: _514  and  _515
REMARK  208  A    between atoms: _519  and  _520
REMARK  209  A    between atoms: _525  and  _527
REMARK  210  A    between atoms: _527  and  _528
REMARK  211  A    between atoms: _527  and  _530
REMARK  212  A    between atoms: _530  and  _531
REMARK  213  A    between atoms: _534  and  _536
REMARK  214  A    between atoms: _536  and  _537
REMARK  215  A    between atoms: _540  and  _542
REMARK  216  A    between atoms: _542  and  _543
REMARK  217  A    between atoms: _542  and  _545
REMARK  218  A    between atoms: _545  and  _546
REMARK  219  A    between atoms: _549  and  _551
REMARK  220  A    between atoms: _551  and  _552
REMARK  221  A    between atoms: _551  and  _554
REMARK  222  A    between atoms: _554  and  _555
REMARK  223  A    between atoms: _557  and  _559
REMARK  224  A    between atoms: _559  and  _560
REMARK  225  A    between atoms: _562  and  _564
REMARK  226  A    between atoms: _564  and  _565
REMARK  227  A    between atoms: _564  and  _567
REMARK  228  A    between atoms: _567  and  _568
REMARK  229  A    between atoms: _571  and  _573
REMARK  230  A    between atoms: _573  and  _574
REMARK  231  A    between atoms: _573  and  _576
REMARK                            x       y       z     vdW  Elec       q    Type
REMARK                         _______ _______ _______ _____ _____    ______ ____
ROOT
ATOM      1  O   HOH     1      -9.062  -5.639   0.765  0.00  0.00    +0.000 OA
ENDROOT
TORSDOF 0
REMARK  Name = ../refined-set-2016/4xu2/4xu2_pocket.pdb
REMARK  231 active torsions:
REMARK  status: ('A' for Active; 'I' for Inactive)
REMARK    1  A    between atoms: _1  and  _3
REMARK    2  A    between atoms: _3  and  _4
REMARK    3  A    between atoms: _3  and  _6
REMARK    4  A    between atoms: _6  and  _7
REMARK    5  A    between atoms: _10  and  _12
REMARK    6  A    between atoms: _12  and  _13
REMARK    7  A    between atoms: _15  and  _17
REMARK    8  A    between atoms: _17  and  _18
REMARK    9  A    between atoms: _17  and  _20
REMARK   10  A    between atoms: _20  and  _21
REMARK   11  A    between atoms: _23  and  _25
REMARK   12  A    between atoms: _25  and  _26
REMARK   13  A    between atoms: _25  and  _28
REMARK   14  A    between atoms: _28  and  _29
REMARK   15  A    between atoms: _32  and  _34
REMARK   16  A    between atoms: _34  and  _35
REMARK   17  A    between atoms: _34  and  _37
REMARK   18  A    between atoms: _37  and  _38
REMARK   19  A    between atoms: _43  and  _45
REMARK   20  A    between atoms: _45  and  _46
REMARK   21  A    between atoms: _49  and  _51
REMARK   22  A    between atoms: _51  and  _52
REMARK   23  A    between atoms: _51  and  _54
REMARK   24  A    between atoms: _54  and  _55
REMARK   25  A    between atoms: _58  and  _60
REMARK   26  A    between atoms: _60  and  _61
REMARK   27  A    between atoms: _60  and  _63
REMARK   28  A    between atoms: _63  and  _64
REMARK   29  A    between atoms: _67  and  _69
REMARK   30  A    between atoms: _69  and  _70
REMARK   31  A    between atoms: _69  and  _72
REMARK   32  A    between atoms: _72  and  _73
REMARK   33  A    between atoms: _76  and  _78
REMARK   34  A    between atoms: _78  and  _79
REMARK   35  A    between atoms: _82  and  _84
REMARK   36  A    between atoms: _84  and  _85
REMARK   37  A    between atoms: _84  and  _87
REMARK   38  A    between atoms: _87  and  _88
REMARK   39  A    between atoms: _88  and  _89
REMARK   40  A    between atoms: _94  and  _96
REMARK   41  A    between atoms: _96  and  _97
REMARK   42  A    between atoms: _96  and  _99
REMARK   43  A    between atoms: _99  and  _100
REMARK   44  A    between atoms: _103  and  _105
REMARK   45  A    between atoms: _105  and  _106
REMARK   46  A    between atoms: _109  and  _111
REMARK   47  A    between atoms: _111  and  _112
REMARK   48  A    between atoms: _114  and  _116
REMARK   49  A    between atoms: _116  and  _117
REMARK   50  A    between atoms: _116  and  _119
REMARK   51  A    between atoms: _119  and  _120
REMARK   52  A    between atoms: _120  and  _121
REMARK   53  A    between atoms: _121  and  _122
REMARK   54  A    between atoms: _131  and  _133
REMARK   55  A    between atoms: _133  and  _134
REMARK   56  A    between atoms: _136  and  _138
REMARK   57  A    between atoms: _138  and  _139
REMARK   58  A    between atoms: _138  and  _141
REMARK   59  A    between atoms: _141  and  _142
REMARK   60  A    between atoms: _142  and  _143
REMARK   61  A    between atoms: _143  and  _144
REMARK   62  A    between atoms: _153  and  _155
REMARK   63  A    between atoms: _155  and  _156
REMARK   64  A    between atoms: _155  and  _158
REMARK   65  A    between atoms: _158  and  _159
REMARK   66  A    between atoms: _164  and  _166
REMARK   67  A    between atoms: _166  and  _167
REMARK   68  A    between atoms: _169  and  _171
REMARK   69  A    between atoms: _171  and  _172
REMARK   70  A    between atoms: _171  and  _174
REMARK   71  A    between atoms: _174  and  _175
REMARK   72  A    between atoms: _175  and  _176
REMARK   73  A    between atoms: _176  and  _177
REMARK   74  A    between atoms: _186  and  _188
REMARK   75  A    between atoms: _188  and  _189
REMARK   76  A    between atoms: _191  and  _193
REMARK   77  A    between atoms: _193  and  _194
REMARK   78  A    between atoms: _193  and  _196
REMARK   79  A    between atoms: _196  and  _197
REMARK   80  A    between atoms: _207  and  _209
REMARK   81  A    between atoms: _209  and  _210
REMARK   82  A    between atoms: _213  and  _215
REMARK   83  A    between atoms: _215  and  _216
REMARK   84  A    between atoms: _219  and  _221
REMARK   85  A    between atoms: _221  and  _222
REMARK   86  A    between atoms: _221  and  _224
REMARK   87  A    between atoms: _224  and  _225
REMARK   88  A    between atoms: _228  and  _230
REMARK   89  A    between atoms: _230  and  _231
REMARK   90  A    between atoms: _230  and  _233
REMARK   91  A    between atoms: _233  and  _234
REMARK   92  A    between atoms: _234  and  _235
REMARK   93  A    between atoms: _240  and  _242
REMARK   94  A    between atoms: _242  and  _243
REMARK   95  A    between atoms: _242  and  _245
REMARK   96  A    between atoms: _245  and  _246
REMARK   97  A    between atoms: _249  and  _251
REMARK   98  A    between atoms: _251  and  _252
REMARK   99  A    between atoms: _251  and  _254
REMARK  100  A    between atoms: _254  and  _255
REMARK  101  A    between atoms: _258  and  _260
REMARK  102  A    between atoms: _260  and  _261
REMARK  103  A    between atoms: _260  and  _263
REMARK  104  A    between atoms: _263  and  _264
REMARK  105  A    between atoms: _267  and  _269
REMARK  106  A    between atoms: _269  and  _270
REMARK  107  A    between atoms: _269  and  _272
REMARK  108  A    between atoms: _272  and  _273
REMARK  109  A    between atoms: _275  and  _277
REMARK  110  A    between atoms: _277  and  _278
REMARK  111  A    between atoms: _277  and  _280
REMARK  112  A    between atoms: _283  and  _285
REMARK  113  A    between atoms: _285  and  _286
REMARK  114  A    between atoms: _285  and  _288
REMARK  115  A    between atoms: _288  and  _289
REMARK  116  A    between atoms: _289  and  _290
REMARK  117  A    between atoms: _290  and  _291
REMARK  118  A    between atoms: _291  and  _292
REMARK  119  A    between atoms: _297  and  _298
REMARK  120  A    between atoms: _303  and  _305
REMARK  121  A    between atoms: _305  and  _306
REMARK  122  A    between atoms: _305  and  _308
REMARK  123  A    between atoms: _308  and  _309
REMARK  124  A    between atoms: _314  and  _316
REMARK  125  A    between atoms: _316  and  _317
REMARK  126  A    between atoms: _316  and  _319
REMARK  127  A    between atoms: _319  and  _320
REMARK  128  A    between atoms: _323  and  _325
REMARK  129  A    between atoms: _325  and  _326
REMARK  130  A    between atoms: _325  and  _328
REMARK  131  A    between atoms: _331  and  _333
REMARK  132  A    between atoms: _333  and  _334
REMARK  133  A    between atoms: _336  and  _338
REMARK  134  A    between atoms: _338  and  _339
REMARK  135  A    between atoms: _338  and  _341
REMARK  136  A    between atoms: _341  and  _342
REMARK  137  A    between atoms: _342  and  _343
REMARK  138  A    between atoms: _343  and  _344
REMARK  139  A    between atoms: _344  and  _345
REMARK  140  A    between atoms: _349  and  _351
REMARK  141  A    between atoms: _351  and  _352
REMARK  142  A    between atoms: _351  and  _354
REMARK  143  A    between atoms: _354  and  _355
REMARK  144  A    between atoms: _358  and  _360
REMARK  145  A    between atoms: _360  and  _361
REMARK  146  A    between atoms: _364  and  _366
REMARK  147  A    between atoms: _366  and  _367
REMARK  148  A    between atoms: _369  and  _371
REMARK  149  A    between atoms: _371  and  _372
REMARK  150  A    between atoms: _371  and  _374
REMARK  151  A    between atoms: _374  and  _375
REMARK  152  A    between atoms: _378  and  _380
REMARK  153  A    between atoms: _380  and  _381
REMARK  154  A    between atoms: _380  and  _383
REMARK  155  A    between atoms: _383  and  _384
REMARK  156  A    between atoms: _387  and  _389
REMARK  157  A    between atoms: _389  and  _390
REMARK  158  A    between atoms: _393  and  _395
REMARK  159  A    between atoms: _395  and  _396
REMARK  160  A    between atoms: _395  and  _398
REMARK  161  A    between atoms: _398  and  _399
REMARK  162  A    between atoms: _399  and  _400
REMARK  163  A    between atoms: _403  and  _405
REMARK  164  A    between atoms: _405  and  _406
REMARK  165  A    between atoms: _405  and  _408
REMARK  166  A    between atoms: _411  and  _413
REMARK  167  A    between atoms: _413  and  _414
REMARK  168  A    between atoms: _413  and  _416
REMARK  169  A    between atoms: _416  and  _417
REMARK  170  A    between atoms: _420  and  _422
REMARK  171  A    between atoms: _422  and  _423
REMARK  172  A    between atoms: _425  and  _427
REMARK  173  A    between atoms: _427  and  _428
REMARK  174  A    between atoms: _427  and  _430
REMARK  175  A    between atoms: _433  and  _435
REMARK  176  A    between atoms: _435  and  _436
REMARK  177  A    between atoms: _438  and  _440
REMARK  178  A    between atoms: _440  and  _441
REMARK  179  A    between atoms: _440  and  _443
REMARK  180  A    between atoms: _443  and  _444
REMARK  181  A    between atoms: _447  and  _449
REMARK  182  A    between atoms: _449  and  _450
REMARK  183  A    between atoms: _449  and  _452
REMARK  184  A    between atoms: _452  and  _453
REMARK  185  A    between atoms: _458  and  _460
REMARK  186  A    between atoms: _460  and  _461
REMARK  187  A    between atoms: _460  and  _463
REMARK  188  A    between atoms: _466  and  _468
REMARK  189  A    between atoms: _468  and  _469
REMARK  190  A    between atoms: _468  and  _471
REMARK  191  A    between atoms: _471  and  _472
REMARK  192  A    between atoms: _472  and  _473
REMARK  193  A    between atoms: _478  and  _480
REMARK  194  A    between atoms: _480  and  _481
REMARK  195  A    between atoms: _485  and  _486
REMARK  196  A    between atoms: _491  and  _493
REMARK  197  A    between atoms: _493  and  _494
REMARK  198  A    between atoms: _493  and  _496
REMARK  199  A    between atoms: _496  and  _497
REMARK  200  A    between atoms: _497  and  _498
REMARK  201  A    between atoms: _501  and  _503
REMARK  202  A    between atoms: _503  and  _504
REMARK  203  A    between atoms: _503  and  _506
REMARK  204  A    between atoms: _509  and  _511
REMARK  205  A    between atoms: _511  and  _512
REMARK  206  A    between atoms: _511  and  _514
REMARK  207  A    between atoms: _514  and  _515
REMARK  208  A    between atoms: _519  and  _520
REMARK  209  A    between atoms: _525  and  _527
REMARK  210  A    between atoms: _527  and  _528
REMARK  211  A    between atoms: _527  and  _530
REMARK  212  A    between atoms: _530  and  _531
REMARK  213  A    between atoms: _534  and  _536
REMARK  214  A    between atoms: _536  and  _537
REMARK  215  A    between atoms: _540  and  _542
REMARK  216  A    between atoms: _542  and  _543
REMARK  217  A    between atoms: _542  and  _545
REMARK  218  A    between atoms: _545  and  _546
REMARK  219  A    between atoms: _549  and  _551
REMARK  220  A    between atoms: _551  and  _552
REMARK  221  A    between atoms: _551  and  _554
REMARK  222  A    between atoms: _554  and  _555
REMARK  223  A    between atoms: _557  and  _559
REMARK  224  A    between atoms: _559  and  _560
REMARK  225  A    between atoms: _562  and  _564
REMARK  226  A    between atoms: _564  and  _565
REMARK  227  A    between atoms: _564  and  _567
REMARK  228  A    between atoms: _567  and  _568
REMARK  229  A    between atoms: _571  and  _573
REMARK  230  A    between atoms: _573  and  _574
REMARK  231  A    between atoms: _573  and  _576
REMARK                            x       y       z     vdW  Elec       q    Type
REMARK                         _______ _______ _______ _____ _____    ______ ____
ROOT
ATOM      1  O   HOH     1       2.110  -1.792  16.610  0.00  0.00    +0.000 OA
ENDROOT
TORSDOF 0
REMARK  Name = ../refined-set-2016/4xu2/4xu2_pocket.pdb
REMARK  231 active torsions:
REMARK  status: ('A' for Active; 'I' for Inactive)
REMARK    1  A    between atoms: _1  and  _3
REMARK    2  A    between atoms: _3  and  _4
REMARK    3  A    between atoms: _3  and  _6
REMARK    4  A    between atoms: _6  and  _7
REMARK    5  A    between atoms: _10  and  _12
REMARK    6  A    between atoms: _12  and  _13
REMARK    7  A    between atoms: _15  and  _17
REMARK    8  A    between atoms: _17  and  _18
REMARK    9  A    between atoms: _17  and  _20
REMARK   10  A    between atoms: _20  and  _21
REMARK   11  A    between atoms: _23  and  _25
REMARK   12  A    between atoms: _25  and  _26
REMARK   13  A    between atoms: _25  and  _28
REMARK   14  A    between atoms: _28  and  _29
REMARK   15  A    between atoms: _32  and  _34
REMARK   16  A    between atoms: _34  and  _35
REMARK   17  A    between atoms: _34  and  _37
REMARK   18  A    between atoms: _37  and  _38
REMARK   19  A    between atoms: _43  and  _45
REMARK   20  A    between atoms: _45  and  _46
REMARK   21  A    between atoms: _49  and  _51
REMARK   22  A    between atoms: _51  and  _52
REMARK   23  A    between atoms: _51  and  _54
REMARK   24  A    between atoms: _54  and  _55
REMARK   25  A    between atoms: _58  and  _60
REMARK   26  A    between atoms: _60  and  _61
REMARK   27  A    between atoms: _60  and  _63
REMARK   28  A    between atoms: _63  and  _64
REMARK   29  A    between atoms: _67  and  _69
REMARK   30  A    between atoms: _69  and  _70
REMARK   31  A    between atoms: _69  and  _72
REMARK   32  A    between atoms: _72  and  _73
REMARK   33  A    between atoms: _76  and  _78
REMARK   34  A    between atoms: _78  and  _79
REMARK   35  A    between atoms: _82  and  _84
REMARK   36  A    between atoms: _84  and  _85
REMARK   37  A    between atoms: _84  and  _87
REMARK   38  A    between atoms: _87  and  _88
REMARK   39  A    between atoms: _88  and  _89
REMARK   40  A    between atoms: _94  and  _96
REMARK   41  A    between atoms: _96  and  _97
REMARK   42  A    between atoms: _96  and  _99
REMARK   43  A    between atoms: _99  and  _100
REMARK   44  A    between atoms: _103  and  _105
REMARK   45  A    between atoms: _105  and  _106
REMARK   46  A    between atoms: _109  and  _111
REMARK   47  A    between atoms: _111  and  _112
REMARK   48  A    between atoms: _114  and  _116
REMARK   49  A    between atoms: _116  and  _117
REMARK   50  A    between atoms: _116  and  _119
REMARK   51  A    between atoms: _119  and  _120
REMARK   52  A    between atoms: _120  and  _121
REMARK   53  A    between atoms: _121  and  _122
REMARK   54  A    between atoms: _131  and  _133
REMARK   55  A    between atoms: _133  and  _134
REMARK   56  A    between atoms: _136  and  _138
REMARK   57  A    between atoms: _138  and  _139
REMARK   58  A    between atoms: _138  and  _141
REMARK   59  A    between atoms: _141  and  _142
REMARK   60  A    between atoms: _142  and  _143
REMARK   61  A    between atoms: _143  and  _144
REMARK   62  A    between atoms: _153  and  _155
REMARK   63  A    between atoms: _155  and  _156
REMARK   64  A    between atoms: _155  and  _158
REMARK   65  A    between atoms: _158  and  _159
REMARK   66  A    between atoms: _164  and  _166
REMARK   67  A    between atoms: _166  and  _167
REMARK   68  A    between atoms: _169  and  _171
REMARK   69  A    between atoms: _171  and  _172
REMARK   70  A    between atoms: _171  and  _174
REMARK   71  A    between atoms: _174  and  _175
REMARK   72  A    between atoms: _175  and  _176
REMARK   73  A    between atoms: _176  and  _177
REMARK   74  A    between atoms: _186  and  _188
REMARK   75  A    between atoms: _188  and  _189
REMARK   76  A    between atoms: _191  and  _193
REMARK   77  A    between atoms: _193  and  _194
REMARK   78  A    between atoms: _193  and  _196
REMARK   79  A    between atoms: _196  and  _197
REMARK   80  A    between atoms: _207  and  _209
REMARK   81  A    between atoms: _209  and  _210
REMARK   82  A    between atoms: _213  and  _215
REMARK   83  A    between atoms: _215  and  _216
REMARK   84  A    between atoms: _219  and  _221
REMARK   85  A    between atoms: _221  and  _222
REMARK   86  A    between atoms: _221  and  _224
REMARK   87  A    between atoms: _224  and  _225
REMARK   88  A    between atoms: _228  and  _230
REMARK   89  A    between atoms: _230  and  _231
REMARK   90  A    between atoms: _230  and  _233
REMARK   91  A    between atoms: _233  and  _234
REMARK   92  A    between atoms: _234  and  _235
REMARK   93  A    between atoms: _240  and  _242
REMARK   94  A    between atoms: _242  and  _243
REMARK   95  A    between atoms: _242  and  _245
REMARK   96  A    between atoms: _245  and  _246
REMARK   97  A    between atoms: _249  and  _251
REMARK   98  A    between atoms: _251  and  _252
REMARK   99  A    between atoms: _251  and  _254
REMARK  100  A    between atoms: _254  and  _255
REMARK  101  A    between atoms: _258  and  _260
REMARK  102  A    between atoms: _260  and  _261
REMARK  103  A    between atoms: _260  and  _263
REMARK  104  A    between atoms: _263  and  _264
REMARK  105  A    between atoms: _267  and  _269
REMARK  106  A    between atoms: _269  and  _270
REMARK  107  A    between atoms: _269  and  _272
REMARK  108  A    between atoms: _272  and  _273
REMARK  109  A    between atoms: _275  and  _277
REMARK  110  A    between atoms: _277  and  _278
REMARK  111  A    between atoms: _277  and  _280
REMARK  112  A    between atoms: _283  and  _285
REMARK  113  A    between atoms: _285  and  _286
REMARK  114  A    between atoms: _285  and  _288
REMARK  115  A    between atoms: _288  and  _289
REMARK  116  A    between atoms: _289  and  _290
REMARK  117  A    between atoms: _290  and  _291
REMARK  118  A    between atoms: _291  and  _292
REMARK  119  A    between atoms: _297  and  _298
REMARK  120  A    between atoms: _303  and  _305
REMARK  121  A    between atoms: _305  and  _306
REMARK  122  A    between atoms: _305  and  _308
REMARK  123  A    between atoms: _308  and  _309
REMARK  124  A    between atoms: _314  and  _316
REMARK  125  A    between atoms: _316  and  _317
REMARK  126  A    between atoms: _316  and  _319
REMARK  127  A    between atoms: _319  and  _320
REMARK  128  A    between atoms: _323  and  _325
REMARK  129  A    between atoms: _325  and  _326
REMARK  130  A    between atoms: _325  and  _328
REMARK  131  A    between atoms: _331  and  _333
REMARK  132  A    between atoms: _333  and  _334
REMARK  133  A    between atoms: _336  and  _338
REMARK  134  A    between atoms: _338  and  _339
REMARK  135  A    between atoms: _338  and  _341
REMARK  136  A    between atoms: _341  and  _342
REMARK  137  A    between atoms: _342  and  _343
REMARK  138  A    between atoms: _343  and  _344
REMARK  139  A    between atoms: _344  and  _345
REMARK  140  A    between atoms: _349  and  _351
REMARK  141  A    between atoms: _351  and  _352
REMARK  142  A    between atoms: _351  and  _354
REMARK  143  A    between atoms: _354  and  _355
REMARK  144  A    between atoms: _358  and  _360
REMARK  145  A    between atoms: _360  and  _361
REMARK  146  A    between atoms: _364  and  _366
REMARK  147  A    between atoms: _366  and  _367
REMARK  148  A    between atoms: _369  and  _371
REMARK  149  A    between atoms: _371  and  _372
REMARK  150  A    between atoms: _371  and  _374
REMARK  151  A    between atoms: _374  and  _375
REMARK  152  A    between atoms: _378  and  _380
REMARK  153  A    between atoms: _380  and  _381
REMARK  154  A    between atoms: _380  and  _383
REMARK  155  A    between atoms: _383  and  _384
REMARK  156  A    between atoms: _387  and  _389
REMARK  157  A    between atoms: _389  and  _390
REMARK  158  A    between atoms: _393  and  _395
REMARK  159  A    between atoms: _395  and  _396
REMARK  160  A    between atoms: _395  and  _398
REMARK  161  A    between atoms: _398  and  _399
REMARK  162  A    between atoms: _399  and  _400
REMARK  163  A    between atoms: _403  and  _405
REMARK  164  A    between atoms: _405  and  _406
REMARK  165  A    between atoms: _405  and  _408
REMARK  166  A    between atoms: _411  and  _413
REMARK  167  A    between atoms: _413  and  _414
REMARK  168  A    between atoms: _413  and  _416
REMARK  169  A    between atoms: _416  and  _417
REMARK  170  A    between atoms: _420  and  _422
REMARK  171  A    between atoms: _422  and  _423
REMARK  172  A    between atoms: _425  and  _427
REMARK  173  A    between atoms: _427  and  _428
REMARK  174  A    between atoms: _427  and  _430
REMARK  175  A    between atoms: _433  and  _435
REMARK  176  A    between atoms: _435  and  _436
REMARK  177  A    between atoms: _438  and  _440
REMARK  178  A    between atoms: _440  and  _441
REMARK  179  A    between atoms: _440  and  _443
REMARK  180  A    between atoms: _443  and  _444
REMARK  181  A    between atoms: _447  and  _449
REMARK  182  A    between atoms: _449  and  _450
REMARK  183  A    between atoms: _449  and  _452
REMARK  184  A    between atoms: _452  and  _453
REMARK  185  A    between atoms: _458  and  _460
REMARK  186  A    between atoms: _460  and  _461
REMARK  187  A    between atoms: _460  and  _463
REMARK  188  A    between atoms: _466  and  _468
REMARK  189  A    between atoms: _468  and  _469
REMARK  190  A    between atoms: _468  and  _471
REMARK  191  A    between atoms: _471  and  _472
REMARK  192  A    between atoms: _472  and  _473
REMARK  193  A    between atoms: _478  and  _480
REMARK  194  A    between atoms: _480  and  _481
REMARK  195  A    between atoms: _485  and  _486
REMARK  196  A    between atoms: _491  and  _493
REMARK  197  A    between atoms: _493  and  _494
REMARK  198  A    between atoms: _493  and  _496
REMARK  199  A    between atoms: _496  and  _497
REMARK  200  A    between atoms: _497  and  _498
REMARK  201  A    between atoms: _501  and  _503
REMARK  202  A    between atoms: _503  and  _504
REMARK  203  A    between atoms: _503  and  _506
REMARK  204  A    between atoms: _509  and  _511
REMARK  205  A    between atoms: _511  and  _512
REMARK  206  A    between atoms: _511  and  _514
REMARK  207  A    between atoms: _514  and  _515
REMARK  208  A    between atoms: _519  and  _520
REMARK  209  A    between atoms: _525  and  _527
REMARK  210  A    between atoms: _527  and  _528
REMARK  211  A    between atoms: _527  and  _530
REMARK  212  A    between atoms: _530  and  _531
REMARK  213  A    between atoms: _534  and  _536
REMARK  214  A    between atoms: _536  and  _537
REMARK  215  A    between atoms: _540  and  _542
REMARK  216  A    between atoms: _542  and  _543
REMARK  217  A    between atoms: _542  and  _545
REMARK  218  A    between atoms: _545  and  _546
REMARK  219  A    between atoms: _549  and  _551
REMARK  220  A    between atoms: _551  and  _552
REMARK  221  A    between atoms: _551  and  _554
REMARK  222  A    between atoms: _554  and  _555
REMARK  223  A    between atoms: _557  and  _559
REMARK  224  A    between atoms: _559  and  _560
REMARK  225  A    between atoms: _562  and  _564
REMARK  226  A    between atoms: _564  and  _565
REMARK  227  A    between atoms: _564  and  _567
REMARK  228  A    between atoms: _567  and  _568
REMARK  229  A    between atoms: _571  and  _573
REMARK  230  A    between atoms: _573  and  _574
REMARK  231  A    between atoms: _573  and  _576
REMARK                            x       y       z     vdW  Elec       q    Type
REMARK                         _______ _______ _______ _____ _____    ______ ____
ROOT
ATOM      1  O   HOH     1      -6.683  -2.081   5.838  0.00  0.00    +0.000 OA
ENDROOT
TORSDOF 0
REMARK  Name = ../refined-set-2016/4xu2/4xu2_pocket.pdb
REMARK  231 active torsions:
REMARK  status: ('A' for Active; 'I' for Inactive)
REMARK    1  A    between atoms: _1  and  _3
REMARK    2  A    between atoms: _3  and  _4
REMARK    3  A    between atoms: _3  and  _6
REMARK    4  A    between atoms: _6  and  _7
REMARK    5  A    between atoms: _10  and  _12
REMARK    6  A    between atoms: _12  and  _13
REMARK    7  A    between atoms: _15  and  _17
REMARK    8  A    between atoms: _17  and  _18
REMARK    9  A    between atoms: _17  and  _20
REMARK   10  A    between atoms: _20  and  _21
REMARK   11  A    between atoms: _23  and  _25
REMARK   12  A    between atoms: _25  and  _26
REMARK   13  A    between atoms: _25  and  _28
REMARK   14  A    between atoms: _28  and  _29
REMARK   15  A    between atoms: _32  and  _34
REMARK   16  A    between atoms: _34  and  _35
REMARK   17  A    between atoms: _34  and  _37
REMARK   18  A    between atoms: _37  and  _38
REMARK   19  A    between atoms: _43  and  _45
REMARK   20  A    between atoms: _45  and  _46
REMARK   21  A    between atoms: _49  and  _51
REMARK   22  A    between atoms: _51  and  _52
REMARK   23  A    between atoms: _51  and  _54
REMARK   24  A    between atoms: _54  and  _55
REMARK   25  A    between atoms: _58  and  _60
REMARK   26  A    between atoms: _60  and  _61
REMARK   27  A    between atoms: _60  and  _63
REMARK   28  A    between atoms: _63  and  _64
REMARK   29  A    between atoms: _67  and  _69
REMARK   30  A    between atoms: _69  and  _70
REMARK   31  A    between atoms: _69  and  _72
REMARK   32  A    between atoms: _72  and  _73
REMARK   33  A    between atoms: _76  and  _78
REMARK   34  A    between atoms: _78  and  _79
REMARK   35  A    between atoms: _82  and  _84
REMARK   36  A    between atoms: _84  and  _85
REMARK   37  A    between atoms: _84  and  _87
REMARK   38  A    between atoms: _87  and  _88
REMARK   39  A    between atoms: _88  and  _89
REMARK   40  A    between atoms: _94  and  _96
REMARK   41  A    between atoms: _96  and  _97
REMARK   42  A    between atoms: _96  and  _99
REMARK   43  A    between atoms: _99  and  _100
REMARK   44  A    between atoms: _103  and  _105
REMARK   45  A    between atoms: _105  and  _106
REMARK   46  A    between atoms: _109  and  _111
REMARK   47  A    between atoms: _111  and  _112
REMARK   48  A    between atoms: _114  and  _116
REMARK   49  A    between atoms: _116  and  _117
REMARK   50  A    between atoms: _116  and  _119
REMARK   51  A    between atoms: _119  and  _120
REMARK   52  A    between atoms: _120  and  _121
REMARK   53  A    between atoms: _121  and  _122
REMARK   54  A    between atoms: _131  and  _133
REMARK   55  A    between atoms: _133  and  _134
REMARK   56  A    between atoms: _136  and  _138
REMARK   57  A    between atoms: _138  and  _139
REMARK   58  A    between atoms: _138  and  _141
REMARK   59  A    between atoms: _141  and  _142
REMARK   60  A    between atoms: _142  and  _143
REMARK   61  A    between atoms: _143  and  _144
REMARK   62  A    between atoms: _153  and  _155
REMARK   63  A    between atoms: _155  and  _156
REMARK   64  A    between atoms: _155  and  _158
REMARK   65  A    between atoms: _158  and  _159
REMARK   66  A    between atoms: _164  and  _166
REMARK   67  A    between atoms: _166  and  _167
REMARK   68  A    between atoms: _169  and  _171
REMARK   69  A    between atoms: _171  and  _172
REMARK   70  A    between atoms: _171  and  _174
REMARK   71  A    between atoms: _174  and  _175
REMARK   72  A    between atoms: _175  and  _176
REMARK   73  A    between atoms: _176  and  _177
REMARK   74  A    between atoms: _186  and  _188
REMARK   75  A    between atoms: _188  and  _189
REMARK   76  A    between atoms: _191  and  _193
REMARK   77  A    between atoms: _193  and  _194
REMARK   78  A    between atoms: _193  and  _196
REMARK   79  A    between atoms: _196  and  _197
REMARK   80  A    between atoms: _207  and  _209
REMARK   81  A    between atoms: _209  and  _210
REMARK   82  A    between atoms: _213  and  _215
REMARK   83  A    between atoms: _215  and  _216
REMARK   84  A    between atoms: _219  and  _221
REMARK   85  A    between atoms: _221  and  _222
REMARK   86  A    between atoms: _221  and  _224
REMARK   87  A    between atoms: _224  and  _225
REMARK   88  A    between atoms: _228  and  _230
REMARK   89  A    between atoms: _230  and  _231
REMARK   90  A    between atoms: _230  and  _233
REMARK   91  A    between atoms: _233  and  _234
REMARK   92  A    between atoms: _234  and  _235
REMARK   93  A    between atoms: _240  and  _242
REMARK   94  A    between atoms: _242  and  _243
REMARK   95  A    between atoms: _242  and  _245
REMARK   96  A    between atoms: _245  and  _246
REMARK   97  A    between atoms: _249  and  _251
REMARK   98  A    between atoms: _251  and  _252
REMARK   99  A    between atoms: _251  and  _254
REMARK  100  A    between atoms: _254  and  _255
REMARK  101  A    between atoms: _258  and  _260
REMARK  102  A    between atoms: _260  and  _261
REMARK  103  A    between atoms: _260  and  _263
REMARK  104  A    between atoms: _263  and  _264
REMARK  105  A    between atoms: _267  and  _269
REMARK  106  A    between atoms: _269  and  _270
REMARK  107  A    between atoms: _269  and  _272
REMARK  108  A    between atoms: _272  and  _273
REMARK  109  A    between atoms: _275  and  _277
REMARK  110  A    between atoms: _277  and  _278
REMARK  111  A    between atoms: _277  and  _280
REMARK  112  A    between atoms: _283  and  _285
REMARK  113  A    between atoms: _285  and  _286
REMARK  114  A    between atoms: _285  and  _288
REMARK  115  A    between atoms: _288  and  _289
REMARK  116  A    between atoms: _289  and  _290
REMARK  117  A    between atoms: _290  and  _291
REMARK  118  A    between atoms: _291  and  _292
REMARK  119  A    between atoms: _297  and  _298
REMARK  120  A    between atoms: _303  and  _305
REMARK  121  A    between atoms: _305  and  _306
REMARK  122  A    between atoms: _305  and  _308
REMARK  123  A    between atoms: _308  and  _309
REMARK  124  A    between atoms: _314  and  _316
REMARK  125  A    between atoms: _316  and  _317
REMARK  126  A    between atoms: _316  and  _319
REMARK  127  A    between atoms: _319  and  _320
REMARK  128  A    between atoms: _323  and  _325
REMARK  129  A    between atoms: _325  and  _326
REMARK  130  A    between atoms: _325  and  _328
REMARK  131  A    between atoms: _331  and  _333
REMARK  132  A    between atoms: _333  and  _334
REMARK  133  A    between atoms: _336  and  _338
REMARK  134  A    between atoms: _338  and  _339
REMARK  135  A    between atoms: _338  and  _341
REMARK  136  A    between atoms: _341  and  _342
REMARK  137  A    between atoms: _342  and  _343
REMARK  138  A    between atoms: _343  and  _344
REMARK  139  A    between atoms: _344  and  _345
REMARK  140  A    between atoms: _349  and  _351
REMARK  141  A    between atoms: _351  and  _352
REMARK  142  A    between atoms: _351  and  _354
REMARK  143  A    between atoms: _354  and  _355
REMARK  144  A    between atoms: _358  and  _360
REMARK  145  A    between atoms: _360  and  _361
REMARK  146  A    between atoms: _364  and  _366
REMARK  147  A    between atoms: _366  and  _367
REMARK  148  A    between atoms: _369  and  _371
REMARK  149  A    between atoms: _371  and  _372
REMARK  150  A    between atoms: _371  and  _374
REMARK  151  A    between atoms: _374  and  _375
REMARK  152  A    between atoms: _378  and  _380
REMARK  153  A    between atoms: _380  and  _381
REMARK  154  A    between atoms: _380  and  _383
REMARK  155  A    between atoms: _383  and  _384
REMARK  156  A    between atoms: _387  and  _389
REMARK  157  A    between atoms: _389  and  _390
REMARK  158  A    between atoms: _393  and  _395
REMARK  159  A    between atoms: _395  and  _396
REMARK  160  A    between atoms: _395  and  _398
REMARK  161  A    between atoms: _398  and  _399
REMARK  162  A    between atoms: _399  and  _400
REMARK  163  A    between atoms: _403  and  _405
REMARK  164  A    between atoms: _405  and  _406
REMARK  165  A    between atoms: _405  and  _408
REMARK  166  A    between atoms: _411  and  _413
REMARK  167  A    between atoms: _413  and  _414
REMARK  168  A    between atoms: _413  and  _416
REMARK  169  A    between atoms: _416  and  _417
REMARK  170  A    between atoms: _420  and  _422
REMARK  171  A    between atoms: _422  and  _423
REMARK  172  A    between atoms: _425  and  _427
REMARK  173  A    between atoms: _427  and  _428
REMARK  174  A    between atoms: _427  and  _430
REMARK  175  A    between atoms: _433  and  _435
REMARK  176  A    between atoms: _435  and  _436
REMARK  177  A    between atoms: _438  and  _440
REMARK  178  A    between atoms: _440  and  _441
REMARK  179  A    between atoms: _440  and  _443
REMARK  180  A    between atoms: _443  and  _444
REMARK  181  A    between atoms: _447  and  _449
REMARK  182  A    between atoms: _449  and  _450
REMARK  183  A    between atoms: _449  and  _452
REMARK  184  A    between atoms: _452  and  _453
REMARK  185  A    between atoms: _458  and  _460
REMARK  186  A    between atoms: _460  and  _461
REMARK  187  A    between atoms: _460  and  _463
REMARK  188  A    between atoms: _466  and  _468
REMARK  189  A    between atoms: _468  and  _469
REMARK  190  A    between atoms: _468  and  _471
REMARK  191  A    between atoms: _471  and  _472
REMARK  192  A    between atoms: _472  and  _473
REMARK  193  A    between atoms: _478  and  _480
REMARK  194  A    between atoms: _480  and  _481
REMARK  195  A    between atoms: _485  and  _486
REMARK  196  A    between atoms: _491  and  _493
REMARK  197  A    between atoms: _493  and  _494
REMARK  198  A    between atoms: _493  and  _496
REMARK  199  A    between atoms: _496  and  _497
REMARK  200  A    between atoms: _497  and  _498
REMARK  201  A    between atoms: _501  and  _503
REMARK  202  A    between atoms: _503  and  _504
REMARK  203  A    between atoms: _503  and  _506
REMARK  204  A    between atoms: _509  and  _511
REMARK  205  A    between atoms: _511  and  _512
REMARK  206  A    between atoms: _511  and  _514
REMARK  207  A    between atoms: _514  and  _515
REMARK  208  A    between atoms: _519  and  _520
REMARK  209  A    between atoms: _525  and  _527
REMARK  210  A    between atoms: _527  and  _528
REMARK  211  A    between atoms: _527  and  _530
REMARK  212  A    between atoms: _530  and  _531
REMARK  213  A    between atoms: _534  and  _536
REMARK  214  A    between atoms: _536  and  _537
REMARK  215  A    between atoms: _540  and  _542
REMARK  216  A    between atoms: _542  and  _543
REMARK  217  A    between atoms: _542  and  _545
REMARK  218  A    between atoms: _545  and  _546
REMARK  219  A    between atoms: _549  and  _551
REMARK  220  A    between atoms: _551  and  _552
REMARK  221  A    between atoms: _551  and  _554
REMARK  222  A    between atoms: _554  and  _555
REMARK  223  A    between atoms: _557  and  _559
REMARK  224  A    between atoms: _559  and  _560
REMARK  225  A    between atoms: _562  and  _564
REMARK  226  A    between atoms: _564  and  _565
REMARK  227  A    between atoms: _564  and  _567
REMARK  228  A    between atoms: _567  and  _568
REMARK  229  A    between atoms: _571  and  _573
REMARK  230  A    between atoms: _573  and  _574
REMARK  231  A    between atoms: _573  and  _576
REMARK                            x       y       z     vdW  Elec       q    Type
REMARK                         _______ _______ _______ _____ _____    ______ ____
ROOT
ATOM      1  O   HOH     1      -3.163 -13.110   5.392  0.00  0.00    +0.000 OA
ENDROOT
TORSDOF 0
REMARK  Name = ../refined-set-2016/4xu2/4xu2_pocket.pdb
REMARK  231 active torsions:
REMARK  status: ('A' for Active; 'I' for Inactive)
REMARK    1  A    between atoms: _1  and  _3
REMARK    2  A    between atoms: _3  and  _4
REMARK    3  A    between atoms: _3  and  _6
REMARK    4  A    between atoms: _6  and  _7
REMARK    5  A    between atoms: _10  and  _12
REMARK    6  A    between atoms: _12  and  _13
REMARK    7  A    between atoms: _15  and  _17
REMARK    8  A    between atoms: _17  and  _18
REMARK    9  A    between atoms: _17  and  _20
REMARK   10  A    between atoms: _20  and  _21
REMARK   11  A    between atoms: _23  and  _25
REMARK   12  A    between atoms: _25  and  _26
REMARK   13  A    between atoms: _25  and  _28
REMARK   14  A    between atoms: _28  and  _29
REMARK   15  A    between atoms: _32  and  _34
REMARK   16  A    between atoms: _34  and  _35
REMARK   17  A    between atoms: _34  and  _37
REMARK   18  A    between atoms: _37  and  _38
REMARK   19  A    between atoms: _43  and  _45
REMARK   20  A    between atoms: _45  and  _46
REMARK   21  A    between atoms: _49  and  _51
REMARK   22  A    between atoms: _51  and  _52
REMARK   23  A    between atoms: _51  and  _54
REMARK   24  A    between atoms: _54  and  _55
REMARK   25  A    between atoms: _58  and  _60
REMARK   26  A    between atoms: _60  and  _61
REMARK   27  A    between atoms: _60  and  _63
REMARK   28  A    between atoms: _63  and  _64
REMARK   29  A    between atoms: _67  and  _69
REMARK   30  A    between atoms: _69  and  _70
REMARK   31  A    between atoms: _69  and  _72
REMARK   32  A    between atoms: _72  and  _73
REMARK   33  A    between atoms: _76  and  _78
REMARK   34  A    between atoms: _78  and  _79
REMARK   35  A    between atoms: _82  and  _84
REMARK   36  A    between atoms: _84  and  _85
REMARK   37  A    between atoms: _84  and  _87
REMARK   38  A    between atoms: _87  and  _88
REMARK   39  A    between atoms: _88  and  _89
REMARK   40  A    between atoms: _94  and  _96
REMARK   41  A    between atoms: _96  and  _97
REMARK   42  A    between atoms: _96  and  _99
REMARK   43  A    between atoms: _99  and  _100
REMARK   44  A    between atoms: _103  and  _105
REMARK   45  A    between atoms: _105  and  _106
REMARK   46  A    between atoms: _109  and  _111
REMARK   47  A    between atoms: _111  and  _112
REMARK   48  A    between atoms: _114  and  _116
REMARK   49  A    between atoms: _116  and  _117
REMARK   50  A    between atoms: _116  and  _119
REMARK   51  A    between atoms: _119  and  _120
REMARK   52  A    between atoms: _120  and  _121
REMARK   53  A    between atoms: _121  and  _122
REMARK   54  A    between atoms: _131  and  _133
REMARK   55  A    between atoms: _133  and  _134
REMARK   56  A    between atoms: _136  and  _138
REMARK   57  A    between atoms: _138  and  _139
REMARK   58  A    between atoms: _138  and  _141
REMARK   59  A    between atoms: _141  and  _142
REMARK   60  A    between atoms: _142  and  _143
REMARK   61  A    between atoms: _143  and  _144
REMARK   62  A    between atoms: _153  and  _155
REMARK   63  A    between atoms: _155  and  _156
REMARK   64  A    between atoms: _155  and  _158
REMARK   65  A    between atoms: _158  and  _159
REMARK   66  A    between atoms: _164  and  _166
REMARK   67  A    between atoms: _166  and  _167
REMARK   68  A    between atoms: _169  and  _171
REMARK   69  A    between atoms: _171  and  _172
REMARK   70  A    between atoms: _171  and  _174
REMARK   71  A    between atoms: _174  and  _175
REMARK   72  A    between atoms: _175  and  _176
REMARK   73  A    between atoms: _176  and  _177
REMARK   74  A    between atoms: _186  and  _188
REMARK   75  A    between atoms: _188  and  _189
REMARK   76  A    between atoms: _191  and  _193
REMARK   77  A    between atoms: _193  and  _194
REMARK   78  A    between atoms: _193  and  _196
REMARK   79  A    between atoms: _196  and  _197
REMARK   80  A    between atoms: _207  and  _209
REMARK   81  A    between atoms: _209  and  _210
REMARK   82  A    between atoms: _213  and  _215
REMARK   83  A    between atoms: _215  and  _216
REMARK   84  A    between atoms: _219  and  _221
REMARK   85  A    between atoms: _221  and  _222
REMARK   86  A    between atoms: _221  and  _224
REMARK   87  A    between atoms: _224  and  _225
REMARK   88  A    between atoms: _228  and  _230
REMARK   89  A    between atoms: _230  and  _231
REMARK   90  A    between atoms: _230  and  _233
REMARK   91  A    between atoms: _233  and  _234
REMARK   92  A    between atoms: _234  and  _235
REMARK   93  A    between atoms: _240  and  _242
REMARK   94  A    between atoms: _242  and  _243
REMARK   95  A    between atoms: _242  and  _245
REMARK   96  A    between atoms: _245  and  _246
REMARK   97  A    between atoms: _249  and  _251
REMARK   98  A    between atoms: _251  and  _252
REMARK   99  A    between atoms: _251  and  _254
REMARK  100  A    between atoms: _254  and  _255
REMARK  101  A    between atoms: _258  and  _260
REMARK  102  A    between atoms: _260  and  _261
REMARK  103  A    between atoms: _260  and  _263
REMARK  104  A    between atoms: _263  and  _264
REMARK  105  A    between atoms: _267  and  _269
REMARK  106  A    between atoms: _269  and  _270
REMARK  107  A    between atoms: _269  and  _272
REMARK  108  A    between atoms: _272  and  _273
REMARK  109  A    between atoms: _275  and  _277
REMARK  110  A    between atoms: _277  and  _278
REMARK  111  A    between atoms: _277  and  _280
REMARK  112  A    between atoms: _283  and  _285
REMARK  113  A    between atoms: _285  and  _286
REMARK  114  A    between atoms: _285  and  _288
REMARK  115  A    between atoms: _288  and  _289
REMARK  116  A    between atoms: _289  and  _290
REMARK  117  A    between atoms: _290  and  _291
REMARK  118  A    between atoms: _291  and  _292
REMARK  119  A    between atoms: _297  and  _298
REMARK  120  A    between atoms: _303  and  _305
REMARK  121  A    between atoms: _305  and  _306
REMARK  122  A    between atoms: _305  and  _308
REMARK  123  A    between atoms: _308  and  _309
REMARK  124  A    between atoms: _314  and  _316
REMARK  125  A    between atoms: _316  and  _317
REMARK  126  A    between atoms: _316  and  _319
REMARK  127  A    between atoms: _319  and  _320
REMARK  128  A    between atoms: _323  and  _325
REMARK  129  A    between atoms: _325  and  _326
REMARK  130  A    between atoms: _325  and  _328
REMARK  131  A    between atoms: _331  and  _333
REMARK  132  A    between atoms: _333  and  _334
REMARK  133  A    between atoms: _336  and  _338
REMARK  134  A    between atoms: _338  and  _339
REMARK  135  A    between atoms: _338  and  _341
REMARK  136  A    between atoms: _341  and  _342
REMARK  137  A    between atoms: _342  and  _343
REMARK  138  A    between atoms: _343  and  _344
REMARK  139  A    between atoms: _344  and  _345
REMARK  140  A    between atoms: _349  and  _351
REMARK  141  A    between atoms: _351  and  _352
REMARK  142  A    between atoms: _351  and  _354
REMARK  143  A    between atoms: _354  and  _355
REMARK  144  A    between atoms: _358  and  _360
REMARK  145  A    between atoms: _360  and  _361
REMARK  146  A    between atoms: _364  and  _366
REMARK  147  A    between atoms: _366  and  _367
REMARK  148  A    between atoms: _369  and  _371
REMARK  149  A    between atoms: _371  and  _372
REMARK  150  A    between atoms: _371  and  _374
REMARK  151  A    between atoms: _374  and  _375
REMARK  152  A    between atoms: _378  and  _380
REMARK  153  A    between atoms: _380  and  _381
REMARK  154  A    between atoms: _380  and  _383
REMARK  155  A    between atoms: _383  and  _384
REMARK  156  A    between atoms: _387  and  _389
REMARK  157  A    between atoms: _389  and  _390
REMARK  158  A    between atoms: _393  and  _395
REMARK  159  A    between atoms: _395  and  _396
REMARK  160  A    between atoms: _395  and  _398
REMARK  161  A    between atoms: _398  and  _399
REMARK  162  A    between atoms: _399  and  _400
REMARK  163  A    between atoms: _403  and  _405
REMARK  164  A    between atoms: _405  and  _406
REMARK  165  A    between atoms: _405  and  _408
REMARK  166  A    between atoms: _411  and  _413
REMARK  167  A    between atoms: _413  and  _414
REMARK  168  A    between atoms: _413  and  _416
REMARK  169  A    between atoms: _416  and  _417
REMARK  170  A    between atoms: _420  and  _422
REMARK  171  A    between atoms: _422  and  _423
REMARK  172  A    between atoms: _425  and  _427
REMARK  173  A    between atoms: _427  and  _428
REMARK  174  A    between atoms: _427  and  _430
REMARK  175  A    between atoms: _433  and  _435
REMARK  176  A    between atoms: _435  and  _436
REMARK  177  A    between atoms: _438  and  _440
REMARK  178  A    between atoms: _440  and  _441
REMARK  179  A    between atoms: _440  and  _443
REMARK  180  A    between atoms: _443  and  _444
REMARK  181  A    between atoms: _447  and  _449
REMARK  182  A    between atoms: _449  and  _450
REMARK  183  A    between atoms: _449  and  _452
REMARK  184  A    between atoms: _452  and  _453
REMARK  185  A    between atoms: _458  and  _460
REMARK  186  A    between atoms: _460  and  _461
REMARK  187  A    between atoms: _460  and  _463
REMARK  188  A    between atoms: _466  and  _468
REMARK  189  A    between atoms: _468  and  _469
REMARK  190  A    between atoms: _468  and  _471
REMARK  191  A    between atoms: _471  and  _472
REMARK  192  A    between atoms: _472  and  _473
REMARK  193  A    between atoms: _478  and  _480
REMARK  194  A    between atoms: _480  and  _481
REMARK  195  A    between atoms: _485  and  _486
REMARK  196  A    between atoms: _491  and  _493
REMARK  197  A    between atoms: _493  and  _494
REMARK  198  A    between atoms: _493  and  _496
REMARK  199  A    between atoms: _496  and  _497
REMARK  200  A    between atoms: _497  and  _498
REMARK  201  A    between atoms: _501  and  _503
REMARK  202  A    between atoms: _503  and  _504
REMARK  203  A    between atoms: _503  and  _506
REMARK  204  A    between atoms: _509  and  _511
REMARK  205  A    between atoms: _511  and  _512
REMARK  206  A    between atoms: _511  and  _514
REMARK  207  A    between atoms: _514  and  _515
REMARK  208  A    between atoms: _519  and  _520
REMARK  209  A    between atoms: _525  and  _527
REMARK  210  A    between atoms: _527  and  _528
REMARK  211  A    between atoms: _527  and  _530
REMARK  212  A    between atoms: _530  and  _531
REMARK  213  A    between atoms: _534  and  _536
REMARK  214  A    between atoms: _536  and  _537
REMARK  215  A    between atoms: _540  and  _542
REMARK  216  A    between atoms: _542  and  _543
REMARK  217  A    between atoms: _542  and  _545
REMARK  218  A    between atoms: _545  and  _546
REMARK  219  A    between atoms: _549  and  _551
REMARK  220  A    between atoms: _551  and  _552
REMARK  221  A    between atoms: _551  and  _554
REMARK  222  A    between atoms: _554  and  _555
REMARK  223  A    between atoms: _557  and  _559
REMARK  224  A    between atoms: _559  and  _560
REMARK  225  A    between atoms: _562  and  _564
REMARK  226  A    between atoms: _564  and  _565
REMARK  227  A    between atoms: _564  and  _567
REMARK  228  A    between atoms: _567  and  _568
REMARK  229  A    between atoms: _571  and  _573
REMARK  230  A    between atoms: _573  and  _574
REMARK  231  A    between atoms: _573  and  _576
REMARK                            x       y       z     vdW  Elec       q    Type
REMARK                         _______ _______ _______ _____ _____    ______ ____
ROOT
ATOM      1  O   HOH     1       0.872  -0.813  18.532  0.00  0.00    +0.000 OA
ENDROOT
TORSDOF 0
REMARK  Name = ../refined-set-2016/4xu2/4xu2_pocket.pdb
REMARK  231 active torsions:
REMARK  status: ('A' for Active; 'I' for Inactive)
REMARK    1  A    between atoms: _1  and  _3
REMARK    2  A    between atoms: _3  and  _4
REMARK    3  A    between atoms: _3  and  _6
REMARK    4  A    between atoms: _6  and  _7
REMARK    5  A    between atoms: _10  and  _12
REMARK    6  A    between atoms: _12  and  _13
REMARK    7  A    between atoms: _15  and  _17
REMARK    8  A    between atoms: _17  and  _18
REMARK    9  A    between atoms: _17  and  _20
REMARK   10  A    between atoms: _20  and  _21
REMARK   11  A    between atoms: _23  and  _25
REMARK   12  A    between atoms: _25  and  _26
REMARK   13  A    between atoms: _25  and  _28
REMARK   14  A    between atoms: _28  and  _29
REMARK   15  A    between atoms: _32  and  _34
REMARK   16  A    between atoms: _34  and  _35
REMARK   17  A    between atoms: _34  and  _37
REMARK   18  A    between atoms: _37  and  _38
REMARK   19  A    between atoms: _43  and  _45
REMARK   20  A    between atoms: _45  and  _46
REMARK   21  A    between atoms: _49  and  _51
REMARK   22  A    between atoms: _51  and  _52
REMARK   23  A    between atoms: _51  and  _54
REMARK   24  A    between atoms: _54  and  _55
REMARK   25  A    between atoms: _58  and  _60
REMARK   26  A    between atoms: _60  and  _61
REMARK   27  A    between atoms: _60  and  _63
REMARK   28  A    between atoms: _63  and  _64
REMARK   29  A    between atoms: _67  and  _69
REMARK   30  A    between atoms: _69  and  _70
REMARK   31  A    between atoms: _69  and  _72
REMARK   32  A    between atoms: _72  and  _73
REMARK   33  A    between atoms: _76  and  _78
REMARK   34  A    between atoms: _78  and  _79
REMARK   35  A    between atoms: _82  and  _84
REMARK   36  A    between atoms: _84  and  _85
REMARK   37  A    between atoms: _84  and  _87
REMARK   38  A    between atoms: _87  and  _88
REMARK   39  A    between atoms: _88  and  _89
REMARK   40  A    between atoms: _94  and  _96
REMARK   41  A    between atoms: _96  and  _97
REMARK   42  A    between atoms: _96  and  _99
REMARK   43  A    between atoms: _99  and  _100
REMARK   44  A    between atoms: _103  and  _105
REMARK   45  A    between atoms: _105  and  _106
REMARK   46  A    between atoms: _109  and  _111
REMARK   47  A    between atoms: _111  and  _112
REMARK   48  A    between atoms: _114  and  _116
REMARK   49  A    between atoms: _116  and  _117
REMARK   50  A    between atoms: _116  and  _119
REMARK   51  A    between atoms: _119  and  _120
REMARK   52  A    between atoms: _120  and  _121
REMARK   53  A    between atoms: _121  and  _122
REMARK   54  A    between atoms: _131  and  _133
REMARK   55  A    between atoms: _133  and  _134
REMARK   56  A    between atoms: _136  and  _138
REMARK   57  A    between atoms: _138  and  _139
REMARK   58  A    between atoms: _138  and  _141
REMARK   59  A    between atoms: _141  and  _142
REMARK   60  A    between atoms: _142  and  _143
REMARK   61  A    between atoms: _143  and  _144
REMARK   62  A    between atoms: _153  and  _155
REMARK   63  A    between atoms: _155  and  _156
REMARK   64  A    between atoms: _155  and  _158
REMARK   65  A    between atoms: _158  and  _159
REMARK   66  A    between atoms: _164  and  _166
REMARK   67  A    between atoms: _166  and  _167
REMARK   68  A    between atoms: _169  and  _171
REMARK   69  A    between atoms: _171  and  _172
REMARK   70  A    between atoms: _171  and  _174
REMARK   71  A    between atoms: _174  and  _175
REMARK   72  A    between atoms: _175  and  _176
REMARK   73  A    between atoms: _176  and  _177
REMARK   74  A    between atoms: _186  and  _188
REMARK   75  A    between atoms: _188  and  _189
REMARK   76  A    between atoms: _191  and  _193
REMARK   77  A    between atoms: _193  and  _194
REMARK   78  A    between atoms: _193  and  _196
REMARK   79  A    between atoms: _196  and  _197
REMARK   80  A    between atoms: _207  and  _209
REMARK   81  A    between atoms: _209  and  _210
REMARK   82  A    between atoms: _213  and  _215
REMARK   83  A    between atoms: _215  and  _216
REMARK   84  A    between atoms: _219  and  _221
REMARK   85  A    between atoms: _221  and  _222
REMARK   86  A    between atoms: _221  and  _224
REMARK   87  A    between atoms: _224  and  _225
REMARK   88  A    between atoms: _228  and  _230
REMARK   89  A    between atoms: _230  and  _231
REMARK   90  A    between atoms: _230  and  _233
REMARK   91  A    between atoms: _233  and  _234
REMARK   92  A    between atoms: _234  and  _235
REMARK   93  A    between atoms: _240  and  _242
REMARK   94  A    between atoms: _242  and  _243
REMARK   95  A    between atoms: _242  and  _245
REMARK   96  A    between atoms: _245  and  _246
REMARK   97  A    between atoms: _249  and  _251
REMARK   98  A    between atoms: _251  and  _252
REMARK   99  A    between atoms: _251  and  _254
REMARK  100  A    between atoms: _254  and  _255
REMARK  101  A    between atoms: _258  and  _260
REMARK  102  A    between atoms: _260  and  _261
REMARK  103  A    between atoms: _260  and  _263
REMARK  104  A    between atoms: _263  and  _264
REMARK  105  A    between atoms: _267  and  _269
REMARK  106  A    between atoms: _269  and  _270
REMARK  107  A    between atoms: _269  and  _272
REMARK  108  A    between atoms: _272  and  _273
REMARK  109  A    between atoms: _275  and  _277
REMARK  110  A    between atoms: _277  and  _278
REMARK  111  A    between atoms: _277  and  _280
REMARK  112  A    between atoms: _283  and  _285
REMARK  113  A    between atoms: _285  and  _286
REMARK  114  A    between atoms: _285  and  _288
REMARK  115  A    between atoms: _288  and  _289
REMARK  116  A    between atoms: _289  and  _290
REMARK  117  A    between atoms: _290  and  _291
REMARK  118  A    between atoms: _291  and  _292
REMARK  119  A    between atoms: _297  and  _298
REMARK  120  A    between atoms: _303  and  _305
REMARK  121  A    between atoms: _305  and  _306
REMARK  122  A    between atoms: _305  and  _308
REMARK  123  A    between atoms: _308  and  _309
REMARK  124  A    between atoms: _314  and  _316
REMARK  125  A    between atoms: _316  and  _317
REMARK  126  A    between atoms: _316  and  _319
REMARK  127  A    between atoms: _319  and  _320
REMARK  128  A    between atoms: _323  and  _325
REMARK  129  A    between atoms: _325  and  _326
REMARK  130  A    between atoms: _325  and  _328
REMARK  131  A    between atoms: _331  and  _333
REMARK  132  A    between atoms: _333  and  _334
REMARK  133  A    between atoms: _336  and  _338
REMARK  134  A    between atoms: _338  and  _339
REMARK  135  A    between atoms: _338  and  _341
REMARK  136  A    between atoms: _341  and  _342
REMARK  137  A    between atoms: _342  and  _343
REMARK  138  A    between atoms: _343  and  _344
REMARK  139  A    between atoms: _344  and  _345
REMARK  140  A    between atoms: _349  and  _351
REMARK  141  A    between atoms: _351  and  _352
REMARK  142  A    between atoms: _351  and  _354
REMARK  143  A    between atoms: _354  and  _355
REMARK  144  A    between atoms: _358  and  _360
REMARK  145  A    between atoms: _360  and  _361
REMARK  146  A    between atoms: _364  and  _366
REMARK  147  A    between atoms: _366  and  _367
REMARK  148  A    between atoms: _369  and  _371
REMARK  149  A    between atoms: _371  and  _372
REMARK  150  A    between atoms: _371  and  _374
REMARK  151  A    between atoms: _374  and  _375
REMARK  152  A    between atoms: _378  and  _380
REMARK  153  A    between atoms: _380  and  _381
REMARK  154  A    between atoms: _380  and  _383
REMARK  155  A    between atoms: _383  and  _384
REMARK  156  A    between atoms: _387  and  _389
REMARK  157  A    between atoms: _389  and  _390
REMARK  158  A    between atoms: _393  and  _395
REMARK  159  A    between atoms: _395  and  _396
REMARK  160  A    between atoms: _395  and  _398
REMARK  161  A    between atoms: _398  and  _399
REMARK  162  A    between atoms: _399  and  _400
REMARK  163  A    between atoms: _403  and  _405
REMARK  164  A    between atoms: _405  and  _406
REMARK  165  A    between atoms: _405  and  _408
REMARK  166  A    between atoms: _411  and  _413
REMARK  167  A    between atoms: _413  and  _414
REMARK  168  A    between atoms: _413  and  _416
REMARK  169  A    between atoms: _416  and  _417
REMARK  170  A    between atoms: _420  and  _422
REMARK  171  A    between atoms: _422  and  _423
REMARK  172  A    between atoms: _425  and  _427
REMARK  173  A    between atoms: _427  and  _428
REMARK  174  A    between atoms: _427  and  _430
REMARK  175  A    between atoms: _433  and  _435
REMARK  176  A    between atoms: _435  and  _436
REMARK  177  A    between atoms: _438  and  _440
REMARK  178  A    between atoms: _440  and  _441
REMARK  179  A    between atoms: _440  and  _443
REMARK  180  A    between atoms: _443  and  _444
REMARK  181  A    between atoms: _447  and  _449
REMARK  182  A    between atoms: _449  and  _450
REMARK  183  A    between atoms: _449  and  _452
REMARK  184  A    between atoms: _452  and  _453
REMARK  185  A    between atoms: _458  and  _460
REMARK  186  A    between atoms: _460  and  _461
REMARK  187  A    between atoms: _460  and  _463
REMARK  188  A    between atoms: _466  and  _468
REMARK  189  A    between atoms: _468  and  _469
REMARK  190  A    between atoms: _468  and  _471
REMARK  191  A    between atoms: _471  and  _472
REMARK  192  A    between atoms: _472  and  _473
REMARK  193  A    between atoms: _478  and  _480
REMARK  194  A    between atoms: _480  and  _481
REMARK  195  A    between atoms: _485  and  _486
REMARK  196  A    between atoms: _491  and  _493
REMARK  197  A    between atoms: _493  and  _494
REMARK  198  A    between atoms: _493  and  _496
REMARK  199  A    between atoms: _496  and  _497
REMARK  200  A    between atoms: _497  and  _498
REMARK  201  A    between atoms: _501  and  _503
REMARK  202  A    between atoms: _503  and  _504
REMARK  203  A    between atoms: _503  and  _506
REMARK  204  A    between atoms: _509  and  _511
REMARK  205  A    between atoms: _511  and  _512
REMARK  206  A    between atoms: _511  and  _514
REMARK  207  A    between atoms: _514  and  _515
REMARK  208  A    between atoms: _519  and  _520
REMARK  209  A    between atoms: _525  and  _527
REMARK  210  A    between atoms: _527  and  _528
REMARK  211  A    between atoms: _527  and  _530
REMARK  212  A    between atoms: _530  and  _531
REMARK  213  A    between atoms: _534  and  _536
REMARK  214  A    between atoms: _536  and  _537
REMARK  215  A    between atoms: _540  and  _542
REMARK  216  A    between atoms: _542  and  _543
REMARK  217  A    between atoms: _542  and  _545
REMARK  218  A    between atoms: _545  and  _546
REMARK  219  A    between atoms: _549  and  _551
REMARK  220  A    between atoms: _551  and  _552
REMARK  221  A    between atoms: _551  and  _554
REMARK  222  A    between atoms: _554  and  _555
REMARK  223  A    between atoms: _557  and  _559
REMARK  224  A    between atoms: _559  and  _560
REMARK  225  A    between atoms: _562  and  _564
REMARK  226  A    between atoms: _564  and  _565
REMARK  227  A    between atoms: _564  and  _567
REMARK  228  A    between atoms: _567  and  _568
REMARK  229  A    between atoms: _571  and  _573
REMARK  230  A    between atoms: _573  and  _574
REMARK  231  A    between atoms: _573  and  _576
REMARK                            x       y       z     vdW  Elec       q    Type
REMARK                         _______ _______ _______ _____ _____    ______ ____
ROOT
ATOM      1  O   HOH     1      -0.396  -4.005  17.411  0.00  0.00    +0.000 OA
ENDROOT
TORSDOF 0
REMARK  Name = ../refined-set-2016/4xu2/4xu2_pocket.pdb
REMARK  231 active torsions:
REMARK  status: ('A' for Active; 'I' for Inactive)
REMARK    1  A    between atoms: _1  and  _3
REMARK    2  A    between atoms: _3  and  _4
REMARK    3  A    between atoms: _3  and  _6
REMARK    4  A    between atoms: _6  and  _7
REMARK    5  A    between atoms: _10  and  _12
REMARK    6  A    between atoms: _12  and  _13
REMARK    7  A    between atoms: _15  and  _17
REMARK    8  A    between atoms: _17  and  _18
REMARK    9  A    between atoms: _17  and  _20
REMARK   10  A    between atoms: _20  and  _21
REMARK   11  A    between atoms: _23  and  _25
REMARK   12  A    between atoms: _25  and  _26
REMARK   13  A    between atoms: _25  and  _28
REMARK   14  A    between atoms: _28  and  _29
REMARK   15  A    between atoms: _32  and  _34
REMARK   16  A    between atoms: _34  and  _35
REMARK   17  A    between atoms: _34  and  _37
REMARK   18  A    between atoms: _37  and  _38
REMARK   19  A    between atoms: _43  and  _45
REMARK   20  A    between atoms: _45  and  _46
REMARK   21  A    between atoms: _49  and  _51
REMARK   22  A    between atoms: _51  and  _52
REMARK   23  A    between atoms: _51  and  _54
REMARK   24  A    between atoms: _54  and  _55
REMARK   25  A    between atoms: _58  and  _60
REMARK   26  A    between atoms: _60  and  _61
REMARK   27  A    between atoms: _60  and  _63
REMARK   28  A    between atoms: _63  and  _64
REMARK   29  A    between atoms: _67  and  _69
REMARK   30  A    between atoms: _69  and  _70
REMARK   31  A    between atoms: _69  and  _72
REMARK   32  A    between atoms: _72  and  _73
REMARK   33  A    between atoms: _76  and  _78
REMARK   34  A    between atoms: _78  and  _79
REMARK   35  A    between atoms: _82  and  _84
REMARK   36  A    between atoms: _84  and  _85
REMARK   37  A    between atoms: _84  and  _87
REMARK   38  A    between atoms: _87  and  _88
REMARK   39  A    between atoms: _88  and  _89
REMARK   40  A    between atoms: _94  and  _96
REMARK   41  A    between atoms: _96  and  _97
REMARK   42  A    between atoms: _96  and  _99
REMARK   43  A    between atoms: _99  and  _100
REMARK   44  A    between atoms: _103  and  _105
REMARK   45  A    between atoms: _105  and  _106
REMARK   46  A    between atoms: _109  and  _111
REMARK   47  A    between atoms: _111  and  _112
REMARK   48  A    between atoms: _114  and  _116
REMARK   49  A    between atoms: _116  and  _117
REMARK   50  A    between atoms: _116  and  _119
REMARK   51  A    between atoms: _119  and  _120
REMARK   52  A    between atoms: _120  and  _121
REMARK   53  A    between atoms: _121  and  _122
REMARK   54  A    between atoms: _131  and  _133
REMARK   55  A    between atoms: _133  and  _134
REMARK   56  A    between atoms: _136  and  _138
REMARK   57  A    between atoms: _138  and  _139
REMARK   58  A    between atoms: _138  and  _141
REMARK   59  A    between atoms: _141  and  _142
REMARK   60  A    between atoms: _142  and  _143
REMARK   61  A    between atoms: _143  and  _144
REMARK   62  A    between atoms: _153  and  _155
REMARK   63  A    between atoms: _155  and  _156
REMARK   64  A    between atoms: _155  and  _158
REMARK   65  A    between atoms: _158  and  _159
REMARK   66  A    between atoms: _164  and  _166
REMARK   67  A    between atoms: _166  and  _167
REMARK   68  A    between atoms: _169  and  _171
REMARK   69  A    between atoms: _171  and  _172
REMARK   70  A    between atoms: _171  and  _174
REMARK   71  A    between atoms: _174  and  _175
REMARK   72  A    between atoms: _175  and  _176
REMARK   73  A    between atoms: _176  and  _177
REMARK   74  A    between atoms: _186  and  _188
REMARK   75  A    between atoms: _188  and  _189
REMARK   76  A    between atoms: _191  and  _193
REMARK   77  A    between atoms: _193  and  _194
REMARK   78  A    between atoms: _193  and  _196
REMARK   79  A    between atoms: _196  and  _197
REMARK   80  A    between atoms: _207  and  _209
REMARK   81  A    between atoms: _209  and  _210
REMARK   82  A    between atoms: _213  and  _215
REMARK   83  A    between atoms: _215  and  _216
REMARK   84  A    between atoms: _219  and  _221
REMARK   85  A    between atoms: _221  and  _222
REMARK   86  A    between atoms: _221  and  _224
REMARK   87  A    between atoms: _224  and  _225
REMARK   88  A    between atoms: _228  and  _230
REMARK   89  A    between atoms: _230  and  _231
REMARK   90  A    between atoms: _230  and  _233
REMARK   91  A    between atoms: _233  and  _234
REMARK   92  A    between atoms: _234  and  _235
REMARK   93  A    between atoms: _240  and  _242
REMARK   94  A    between atoms: _242  and  _243
REMARK   95  A    between atoms: _242  and  _245
REMARK   96  A    between atoms: _245  and  _246
REMARK   97  A    between atoms: _249  and  _251
REMARK   98  A    between atoms: _251  and  _252
REMARK   99  A    between atoms: _251  and  _254
REMARK  100  A    between atoms: _254  and  _255
REMARK  101  A    between atoms: _258  and  _260
REMARK  102  A    between atoms: _260  and  _261
REMARK  103  A    between atoms: _260  and  _263
REMARK  104  A    between atoms: _263  and  _264
REMARK  105  A    between atoms: _267  and  _269
REMARK  106  A    between atoms: _269  and  _270
REMARK  107  A    between atoms: _269  and  _272
REMARK  108  A    between atoms: _272  and  _273
REMARK  109  A    between atoms: _275  and  _277
REMARK  110  A    between atoms: _277  and  _278
REMARK  111  A    between atoms: _277  and  _280
REMARK  112  A    between atoms: _283  and  _285
REMARK  113  A    between atoms: _285  and  _286
REMARK  114  A    between atoms: _285  and  _288
REMARK  115  A    between atoms: _288  and  _289
REMARK  116  A    between atoms: _289  and  _290
REMARK  117  A    between atoms: _290  and  _291
REMARK  118  A    between atoms: _291  and  _292
REMARK  119  A    between atoms: _297  and  _298
REMARK  120  A    between atoms: _303  and  _305
REMARK  121  A    between atoms: _305  and  _306
REMARK  122  A    between atoms: _305  and  _308
REMARK  123  A    between atoms: _308  and  _309
REMARK  124  A    between atoms: _314  and  _316
REMARK  125  A    between atoms: _316  and  _317
REMARK  126  A    between atoms: _316  and  _319
REMARK  127  A    between atoms: _319  and  _320
REMARK  128  A    between atoms: _323  and  _325
REMARK  129  A    between atoms: _325  and  _326
REMARK  130  A    between atoms: _325  and  _328
REMARK  131  A    between atoms: _331  and  _333
REMARK  132  A    between atoms: _333  and  _334
REMARK  133  A    between atoms: _336  and  _338
REMARK  134  A    between atoms: _338  and  _339
REMARK  135  A    between atoms: _338  and  _341
REMARK  136  A    between atoms: _341  and  _342
REMARK  137  A    between atoms: _342  and  _343
REMARK  138  A    between atoms: _343  and  _344
REMARK  139  A    between atoms: _344  and  _345
REMARK  140  A    between atoms: _349  and  _351
REMARK  141  A    between atoms: _351  and  _352
REMARK  142  A    between atoms: _351  and  _354
REMARK  143  A    between atoms: _354  and  _355
REMARK  144  A    between atoms: _358  and  _360
REMARK  145  A    between atoms: _360  and  _361
REMARK  146  A    between atoms: _364  and  _366
REMARK  147  A    between atoms: _366  and  _367
REMARK  148  A    between atoms: _369  and  _371
REMARK  149  A    between atoms: _371  and  _372
REMARK  150  A    between atoms: _371  and  _374
REMARK  151  A    between atoms: _374  and  _375
REMARK  152  A    between atoms: _378  and  _380
REMARK  153  A    between atoms: _380  and  _381
REMARK  154  A    between atoms: _380  and  _383
REMARK  155  A    between atoms: _383  and  _384
REMARK  156  A    between atoms: _387  and  _389
REMARK  157  A    between atoms: _389  and  _390
REMARK  158  A    between atoms: _393  and  _395
REMARK  159  A    between atoms: _395  and  _396
REMARK  160  A    between atoms: _395  and  _398
REMARK  161  A    between atoms: _398  and  _399
REMARK  162  A    between atoms: _399  and  _400
REMARK  163  A    between atoms: _403  and  _405
REMARK  164  A    between atoms: _405  and  _406
REMARK  165  A    between atoms: _405  and  _408
REMARK  166  A    between atoms: _411  and  _413
REMARK  167  A    between atoms: _413  and  _414
REMARK  168  A    between atoms: _413  and  _416
REMARK  169  A    between atoms: _416  and  _417
REMARK  170  A    between atoms: _420  and  _422
REMARK  171  A    between atoms: _422  and  _423
REMARK  172  A    between atoms: _425  and  _427
REMARK  173  A    between atoms: _427  and  _428
REMARK  174  A    between atoms: _427  and  _430
REMARK  175  A    between atoms: _433  and  _435
REMARK  176  A    between atoms: _435  and  _436
REMARK  177  A    between atoms: _438  and  _440
REMARK  178  A    between atoms: _440  and  _441
REMARK  179  A    between atoms: _440  and  _443
REMARK  180  A    between atoms: _443  and  _444
REMARK  181  A    between atoms: _447  and  _449
REMARK  182  A    between atoms: _449  and  _450
REMARK  183  A    between atoms: _449  and  _452
REMARK  184  A    between atoms: _452  and  _453
REMARK  185  A    between atoms: _458  and  _460
REMARK  186  A    between atoms: _460  and  _461
REMARK  187  A    between atoms: _460  and  _463
REMARK  188  A    between atoms: _466  and  _468
REMARK  189  A    between atoms: _468  and  _469
REMARK  190  A    between atoms: _468  and  _471
REMARK  191  A    between atoms: _471  and  _472
REMARK  192  A    between atoms: _472  and  _473
REMARK  193  A    between atoms: _478  and  _480
REMARK  194  A    between atoms: _480  and  _481
REMARK  195  A    between atoms: _485  and  _486
REMARK  196  A    between atoms: _491  and  _493
REMARK  197  A    between atoms: _493  and  _494
REMARK  198  A    between atoms: _493  and  _496
REMARK  199  A    between atoms: _496  and  _497
REMARK  200  A    between atoms: _497  and  _498
REMARK  201  A    between atoms: _501  and  _503
REMARK  202  A    between atoms: _503  and  _504
REMARK  203  A    between atoms: _503  and  _506
REMARK  204  A    between atoms: _509  and  _511
REMARK  205  A    between atoms: _511  and  _512
REMARK  206  A    between atoms: _511  and  _514
REMARK  207  A    between atoms: _514  and  _515
REMARK  208  A    between atoms: _519  and  _520
REMARK  209  A    between atoms: _525  and  _527
REMARK  210  A    between atoms: _527  and  _528
REMARK  211  A    between atoms: _527  and  _530
REMARK  212  A    between atoms: _530  and  _531
REMARK  213  A    between atoms: _534  and  _536
REMARK  214  A    between atoms: _536  and  _537
REMARK  215  A    between atoms: _540  and  _542
REMARK  216  A    between atoms: _542  and  _543
REMARK  217  A    between atoms: _542  and  _545
REMARK  218  A    between atoms: _545  and  _546
REMARK  219  A    between atoms: _549  and  _551
REMARK  220  A    between atoms: _551  and  _552
REMARK  221  A    between atoms: _551  and  _554
REMARK  222  A    between atoms: _554  and  _555
REMARK  223  A    between atoms: _557  and  _559
REMARK  224  A    between atoms: _559  and  _560
REMARK  225  A    between atoms: _562  and  _564
REMARK  226  A    between atoms: _564  and  _565
REMARK  227  A    between atoms: _564  and  _567
REMARK  228  A    between atoms: _567  and  _568
REMARK  229  A    between atoms: _571  and  _573
REMARK  230  A    between atoms: _573  and  _574
REMARK  231  A    between atoms: _573  and  _576
REMARK                            x       y       z     vdW  Elec       q    Type
REMARK                         _______ _______ _______ _____ _____    ______ ____
ROOT
ATOM      1  O   HOH     1      -1.488   3.117  12.380  0.00  0.00    +0.000 OA
ENDROOT
TORSDOF 0
REMARK  Name = ../refined-set-2016/4xu2/4xu2_pocket.pdb
REMARK  231 active torsions:
REMARK  status: ('A' for Active; 'I' for Inactive)
REMARK    1  A    between atoms: _1  and  _3
REMARK    2  A    between atoms: _3  and  _4
REMARK    3  A    between atoms: _3  and  _6
REMARK    4  A    between atoms: _6  and  _7
REMARK    5  A    between atoms: _10  and  _12
REMARK    6  A    between atoms: _12  and  _13
REMARK    7  A    between atoms: _15  and  _17
REMARK    8  A    between atoms: _17  and  _18
REMARK    9  A    between atoms: _17  and  _20
REMARK   10  A    between atoms: _20  and  _21
REMARK   11  A    between atoms: _23  and  _25
REMARK   12  A    between atoms: _25  and  _26
REMARK   13  A    between atoms: _25  and  _28
REMARK   14  A    between atoms: _28  and  _29
REMARK   15  A    between atoms: _32  and  _34
REMARK   16  A    between atoms: _34  and  _35
REMARK   17  A    between atoms: _34  and  _37
REMARK   18  A    between atoms: _37  and  _38
REMARK   19  A    between atoms: _43  and  _45
REMARK   20  A    between atoms: _45  and  _46
REMARK   21  A    between atoms: _49  and  _51
REMARK   22  A    between atoms: _51  and  _52
REMARK   23  A    between atoms: _51  and  _54
REMARK   24  A    between atoms: _54  and  _55
REMARK   25  A    between atoms: _58  and  _60
REMARK   26  A    between atoms: _60  and  _61
REMARK   27  A    between atoms: _60  and  _63
REMARK   28  A    between atoms: _63  and  _64
REMARK   29  A    between atoms: _67  and  _69
REMARK   30  A    between atoms: _69  and  _70
REMARK   31  A    between atoms: _69  and  _72
REMARK   32  A    between atoms: _72  and  _73
REMARK   33  A    between atoms: _76  and  _78
REMARK   34  A    between atoms: _78  and  _79
REMARK   35  A    between atoms: _82  and  _84
REMARK   36  A    between atoms: _84  and  _85
REMARK   37  A    between atoms: _84  and  _87
REMARK   38  A    between atoms: _87  and  _88
REMARK   39  A    between atoms: _88  and  _89
REMARK   40  A    between atoms: _94  and  _96
REMARK   41  A    between atoms: _96  and  _97
REMARK   42  A    between atoms: _96  and  _99
REMARK   43  A    between atoms: _99  and  _100
REMARK   44  A    between atoms: _103  and  _105
REMARK   45  A    between atoms: _105  and  _106
REMARK   46  A    between atoms: _109  and  _111
REMARK   47  A    between atoms: _111  and  _112
REMARK   48  A    between atoms: _114  and  _116
REMARK   49  A    between atoms: _116  and  _117
REMARK   50  A    between atoms: _116  and  _119
REMARK   51  A    between atoms: _119  and  _120
REMARK   52  A    between atoms: _120  and  _121
REMARK   53  A    between atoms: _121  and  _122
REMARK   54  A    between atoms: _131  and  _133
REMARK   55  A    between atoms: _133  and  _134
REMARK   56  A    between atoms: _136  and  _138
REMARK   57  A    between atoms: _138  and  _139
REMARK   58  A    between atoms: _138  and  _141
REMARK   59  A    between atoms: _141  and  _142
REMARK   60  A    between atoms: _142  and  _143
REMARK   61  A    between atoms: _143  and  _144
REMARK   62  A    between atoms: _153  and  _155
REMARK   63  A    between atoms: _155  and  _156
REMARK   64  A    between atoms: _155  and  _158
REMARK   65  A    between atoms: _158  and  _159
REMARK   66  A    between atoms: _164  and  _166
REMARK   67  A    between atoms: _166  and  _167
REMARK   68  A    between atoms: _169  and  _171
REMARK   69  A    between atoms: _171  and  _172
REMARK   70  A    between atoms: _171  and  _174
REMARK   71  A    between atoms: _174  and  _175
REMARK   72  A    between atoms: _175  and  _176
REMARK   73  A    between atoms: _176  and  _177
REMARK   74  A    between atoms: _186  and  _188
REMARK   75  A    between atoms: _188  and  _189
REMARK   76  A    between atoms: _191  and  _193
REMARK   77  A    between atoms: _193  and  _194
REMARK   78  A    between atoms: _193  and  _196
REMARK   79  A    between atoms: _196  and  _197
REMARK   80  A    between atoms: _207  and  _209
REMARK   81  A    between atoms: _209  and  _210
REMARK   82  A    between atoms: _213  and  _215
REMARK   83  A    between atoms: _215  and  _216
REMARK   84  A    between atoms: _219  and  _221
REMARK   85  A    between atoms: _221  and  _222
REMARK   86  A    between atoms: _221  and  _224
REMARK   87  A    between atoms: _224  and  _225
REMARK   88  A    between atoms: _228  and  _230
REMARK   89  A    between atoms: _230  and  _231
REMARK   90  A    between atoms: _230  and  _233
REMARK   91  A    between atoms: _233  and  _234
REMARK   92  A    between atoms: _234  and  _235
REMARK   93  A    between atoms: _240  and  _242
REMARK   94  A    between atoms: _242  and  _243
REMARK   95  A    between atoms: _242  and  _245
REMARK   96  A    between atoms: _245  and  _246
REMARK   97  A    between atoms: _249  and  _251
REMARK   98  A    between atoms: _251  and  _252
REMARK   99  A    between atoms: _251  and  _254
REMARK  100  A    between atoms: _254  and  _255
REMARK  101  A    between atoms: _258  and  _260
REMARK  102  A    between atoms: _260  and  _261
REMARK  103  A    between atoms: _260  and  _263
REMARK  104  A    between atoms: _263  and  _264
REMARK  105  A    between atoms: _267  and  _269
REMARK  106  A    between atoms: _269  and  _270
REMARK  107  A    between atoms: _269  and  _272
REMARK  108  A    between atoms: _272  and  _273
REMARK  109  A    between atoms: _275  and  _277
REMARK  110  A    between atoms: _277  and  _278
REMARK  111  A    between atoms: _277  and  _280
REMARK  112  A    between atoms: _283  and  _285
REMARK  113  A    between atoms: _285  and  _286
REMARK  114  A    between atoms: _285  and  _288
REMARK  115  A    between atoms: _288  and  _289
REMARK  116  A    between atoms: _289  and  _290
REMARK  117  A    between atoms: _290  and  _291
REMARK  118  A    between atoms: _291  and  _292
REMARK  119  A    between atoms: _297  and  _298
REMARK  120  A    between atoms: _303  and  _305
REMARK  121  A    between atoms: _305  and  _306
REMARK  122  A    between atoms: _305  and  _308
REMARK  123  A    between atoms: _308  and  _309
REMARK  124  A    between atoms: _314  and  _316
REMARK  125  A    between atoms: _316  and  _317
REMARK  126  A    between atoms: _316  and  _319
REMARK  127  A    between atoms: _319  and  _320
REMARK  128  A    between atoms: _323  and  _325
REMARK  129  A    between atoms: _325  and  _326
REMARK  130  A    between atoms: _325  and  _328
REMARK  131  A    between atoms: _331  and  _333
REMARK  132  A    between atoms: _333  and  _334
REMARK  133  A    between atoms: _336  and  _338
REMARK  134  A    between atoms: _338  and  _339
REMARK  135  A    between atoms: _338  and  _341
REMARK  136  A    between atoms: _341  and  _342
REMARK  137  A    between atoms: _342  and  _343
REMARK  138  A    between atoms: _343  and  _344
REMARK  139  A    between atoms: _344  and  _345
REMARK  140  A    between atoms: _349  and  _351
REMARK  141  A    between atoms: _351  and  _352
REMARK  142  A    between atoms: _351  and  _354
REMARK  143  A    between atoms: _354  and  _355
REMARK  144  A    between atoms: _358  and  _360
REMARK  145  A    between atoms: _360  and  _361
REMARK  146  A    between atoms: _364  and  _366
REMARK  147  A    between atoms: _366  and  _367
REMARK  148  A    between atoms: _369  and  _371
REMARK  149  A    between atoms: _371  and  _372
REMARK  150  A    between atoms: _371  and  _374
REMARK  151  A    between atoms: _374  and  _375
REMARK  152  A    between atoms: _378  and  _380
REMARK  153  A    between atoms: _380  and  _381
REMARK  154  A    between atoms: _380  and  _383
REMARK  155  A    between atoms: _383  and  _384
REMARK  156  A    between atoms: _387  and  _389
REMARK  157  A    between atoms: _389  and  _390
REMARK  158  A    between atoms: _393  and  _395
REMARK  159  A    between atoms: _395  and  _396
REMARK  160  A    between atoms: _395  and  _398
REMARK  161  A    between atoms: _398  and  _399
REMARK  162  A    between atoms: _399  and  _400
REMARK  163  A    between atoms: _403  and  _405
REMARK  164  A    between atoms: _405  and  _406
REMARK  165  A    between atoms: _405  and  _408
REMARK  166  A    between atoms: _411  and  _413
REMARK  167  A    between atoms: _413  and  _414
REMARK  168  A    between atoms: _413  and  _416
REMARK  169  A    between atoms: _416  and  _417
REMARK  170  A    between atoms: _420  and  _422
REMARK  171  A    between atoms: _422  and  _423
REMARK  172  A    between atoms: _425  and  _427
REMARK  173  A    between atoms: _427  and  _428
REMARK  174  A    between atoms: _427  and  _430
REMARK  175  A    between atoms: _433  and  _435
REMARK  176  A    between atoms: _435  and  _436
REMARK  177  A    between atoms: _438  and  _440
REMARK  178  A    between atoms: _440  and  _441
REMARK  179  A    between atoms: _440  and  _443
REMARK  180  A    between atoms: _443  and  _444
REMARK  181  A    between atoms: _447  and  _449
REMARK  182  A    between atoms: _449  and  _450
REMARK  183  A    between atoms: _449  and  _452
REMARK  184  A    between atoms: _452  and  _453
REMARK  185  A    between atoms: _458  and  _460
REMARK  186  A    between atoms: _460  and  _461
REMARK  187  A    between atoms: _460  and  _463
REMARK  188  A    between atoms: _466  and  _468
REMARK  189  A    between atoms: _468  and  _469
REMARK  190  A    between atoms: _468  and  _471
REMARK  191  A    between atoms: _471  and  _472
REMARK  192  A    between atoms: _472  and  _473
REMARK  193  A    between atoms: _478  and  _480
REMARK  194  A    between atoms: _480  and  _481
REMARK  195  A    between atoms: _485  and  _486
REMARK  196  A    between atoms: _491  and  _493
REMARK  197  A    between atoms: _493  and  _494
REMARK  198  A    between atoms: _493  and  _496
REMARK  199  A    between atoms: _496  and  _497
REMARK  200  A    between atoms: _497  and  _498
REMARK  201  A    between atoms: _501  and  _503
REMARK  202  A    between atoms: _503  and  _504
REMARK  203  A    between atoms: _503  and  _506
REMARK  204  A    between atoms: _509  and  _511
REMARK  205  A    between atoms: _511  and  _512
REMARK  206  A    between atoms: _511  and  _514
REMARK  207  A    between atoms: _514  and  _515
REMARK  208  A    between atoms: _519  and  _520
REMARK  209  A    between atoms: _525  and  _527
REMARK  210  A    between atoms: _527  and  _528
REMARK  211  A    between atoms: _527  and  _530
REMARK  212  A    between atoms: _530  and  _531
REMARK  213  A    between atoms: _534  and  _536
REMARK  214  A    between atoms: _536  and  _537
REMARK  215  A    between atoms: _540  and  _542
REMARK  216  A    between atoms: _542  and  _543
REMARK  217  A    between atoms: _542  and  _545
REMARK  218  A    between atoms: _545  and  _546
REMARK  219  A    between atoms: _549  and  _551
REMARK  220  A    between atoms: _551  and  _552
REMARK  221  A    between atoms: _551  and  _554
REMARK  222  A    between atoms: _554  and  _555
REMARK  223  A    between atoms: _557  and  _559
REMARK  224  A    between atoms: _559  and  _560
REMARK  225  A    between atoms: _562  and  _564
REMARK  226  A    between atoms: _564  and  _565
REMARK  227  A    between atoms: _564  and  _567
REMARK  228  A    between atoms: _567  and  _568
REMARK  229  A    between atoms: _571  and  _573
REMARK  230  A    between atoms: _573  and  _574
REMARK  231  A    between atoms: _573  and  _576
REMARK                            x       y       z     vdW  Elec       q    Type
REMARK                         _______ _______ _______ _____ _____    ______ ____
ROOT
ATOM      1  O   HOH     1       7.900  -9.679  16.728  0.00  0.00    +0.000 OA
ENDROOT
TORSDOF 0
REMARK  Name = ../refined-set-2016/4xu2/4xu2_pocket.pdb
REMARK  231 active torsions:
REMARK  status: ('A' for Active; 'I' for Inactive)
REMARK    1  A    between atoms: _1  and  _3
REMARK    2  A    between atoms: _3  and  _4
REMARK    3  A    between atoms: _3  and  _6
REMARK    4  A    between atoms: _6  and  _7
REMARK    5  A    between atoms: _10  and  _12
REMARK    6  A    between atoms: _12  and  _13
REMARK    7  A    between atoms: _15  and  _17
REMARK    8  A    between atoms: _17  and  _18
REMARK    9  A    between atoms: _17  and  _20
REMARK   10  A    between atoms: _20  and  _21
REMARK   11  A    between atoms: _23  and  _25
REMARK   12  A    between atoms: _25  and  _26
REMARK   13  A    between atoms: _25  and  _28
REMARK   14  A    between atoms: _28  and  _29
REMARK   15  A    between atoms: _32  and  _34
REMARK   16  A    between atoms: _34  and  _35
REMARK   17  A    between atoms: _34  and  _37
REMARK   18  A    between atoms: _37  and  _38
REMARK   19  A    between atoms: _43  and  _45
REMARK   20  A    between atoms: _45  and  _46
REMARK   21  A    between atoms: _49  and  _51
REMARK   22  A    between atoms: _51  and  _52
REMARK   23  A    between atoms: _51  and  _54
REMARK   24  A    between atoms: _54  and  _55
REMARK   25  A    between atoms: _58  and  _60
REMARK   26  A    between atoms: _60  and  _61
REMARK   27  A    between atoms: _60  and  _63
REMARK   28  A    between atoms: _63  and  _64
REMARK   29  A    between atoms: _67  and  _69
REMARK   30  A    between atoms: _69  and  _70
REMARK   31  A    between atoms: _69  and  _72
REMARK   32  A    between atoms: _72  and  _73
REMARK   33  A    between atoms: _76  and  _78
REMARK   34  A    between atoms: _78  and  _79
REMARK   35  A    between atoms: _82  and  _84
REMARK   36  A    between atoms: _84  and  _85
REMARK   37  A    between atoms: _84  and  _87
REMARK   38  A    between atoms: _87  and  _88
REMARK   39  A    between atoms: _88  and  _89
REMARK   40  A    between atoms: _94  and  _96
REMARK   41  A    between atoms: _96  and  _97
REMARK   42  A    between atoms: _96  and  _99
REMARK   43  A    between atoms: _99  and  _100
REMARK   44  A    between atoms: _103  and  _105
REMARK   45  A    between atoms: _105  and  _106
REMARK   46  A    between atoms: _109  and  _111
REMARK   47  A    between atoms: _111  and  _112
REMARK   48  A    between atoms: _114  and  _116
REMARK   49  A    between atoms: _116  and  _117
REMARK   50  A    between atoms: _116  and  _119
REMARK   51  A    between atoms: _119  and  _120
REMARK   52  A    between atoms: _120  and  _121
REMARK   53  A    between atoms: _121  and  _122
REMARK   54  A    between atoms: _131  and  _133
REMARK   55  A    between atoms: _133  and  _134
REMARK   56  A    between atoms: _136  and  _138
REMARK   57  A    between atoms: _138  and  _139
REMARK   58  A    between atoms: _138  and  _141
REMARK   59  A    between atoms: _141  and  _142
REMARK   60  A    between atoms: _142  and  _143
REMARK   61  A    between atoms: _143  and  _144
REMARK   62  A    between atoms: _153  and  _155
REMARK   63  A    between atoms: _155  and  _156
REMARK   64  A    between atoms: _155  and  _158
REMARK   65  A    between atoms: _158  and  _159
REMARK   66  A    between atoms: _164  and  _166
REMARK   67  A    between atoms: _166  and  _167
REMARK   68  A    between atoms: _169  and  _171
REMARK   69  A    between atoms: _171  and  _172
REMARK   70  A    between atoms: _171  and  _174
REMARK   71  A    between atoms: _174  and  _175
REMARK   72  A    between atoms: _175  and  _176
REMARK   73  A    between atoms: _176  and  _177
REMARK   74  A    between atoms: _186  and  _188
REMARK   75  A    between atoms: _188  and  _189
REMARK   76  A    between atoms: _191  and  _193
REMARK   77  A    between atoms: _193  and  _194
REMARK   78  A    between atoms: _193  and  _196
REMARK   79  A    between atoms: _196  and  _197
REMARK   80  A    between atoms: _207  and  _209
REMARK   81  A    between atoms: _209  and  _210
REMARK   82  A    between atoms: _213  and  _215
REMARK   83  A    between atoms: _215  and  _216
REMARK   84  A    between atoms: _219  and  _221
REMARK   85  A    between atoms: _221  and  _222
REMARK   86  A    between atoms: _221  and  _224
REMARK   87  A    between atoms: _224  and  _225
REMARK   88  A    between atoms: _228  and  _230
REMARK   89  A    between atoms: _230  and  _231
REMARK   90  A    between atoms: _230  and  _233
REMARK   91  A    between atoms: _233  and  _234
REMARK   92  A    between atoms: _234  and  _235
REMARK   93  A    between atoms: _240  and  _242
REMARK   94  A    between atoms: _242  and  _243
REMARK   95  A    between atoms: _242  and  _245
REMARK   96  A    between atoms: _245  and  _246
REMARK   97  A    between atoms: _249  and  _251
REMARK   98  A    between atoms: _251  and  _252
REMARK   99  A    between atoms: _251  and  _254
REMARK  100  A    between atoms: _254  and  _255
REMARK  101  A    between atoms: _258  and  _260
REMARK  102  A    between atoms: _260  and  _261
REMARK  103  A    between atoms: _260  and  _263
REMARK  104  A    between atoms: _263  and  _264
REMARK  105  A    between atoms: _267  and  _269
REMARK  106  A    between atoms: _269  and  _270
REMARK  107  A    between atoms: _269  and  _272
REMARK  108  A    between atoms: _272  and  _273
REMARK  109  A    between atoms: _275  and  _277
REMARK  110  A    between atoms: _277  and  _278
REMARK  111  A    between atoms: _277  and  _280
REMARK  112  A    between atoms: _283  and  _285
REMARK  113  A    between atoms: _285  and  _286
REMARK  114  A    between atoms: _285  and  _288
REMARK  115  A    between atoms: _288  and  _289
REMARK  116  A    between atoms: _289  and  _290
REMARK  117  A    between atoms: _290  and  _291
REMARK  118  A    between atoms: _291  and  _292
REMARK  119  A    between atoms: _297  and  _298
REMARK  120  A    between atoms: _303  and  _305
REMARK  121  A    between atoms: _305  and  _306
REMARK  122  A    between atoms: _305  and  _308
REMARK  123  A    between atoms: _308  and  _309
REMARK  124  A    between atoms: _314  and  _316
REMARK  125  A    between atoms: _316  and  _317
REMARK  126  A    between atoms: _316  and  _319
REMARK  127  A    between atoms: _319  and  _320
REMARK  128  A    between atoms: _323  and  _325
REMARK  129  A    between atoms: _325  and  _326
REMARK  130  A    between atoms: _325  and  _328
REMARK  131  A    between atoms: _331  and  _333
REMARK  132  A    between atoms: _333  and  _334
REMARK  133  A    between atoms: _336  and  _338
REMARK  134  A    between atoms: _338  and  _339
REMARK  135  A    between atoms: _338  and  _341
REMARK  136  A    between atoms: _341  and  _342
REMARK  137  A    between atoms: _342  and  _343
REMARK  138  A    between atoms: _343  and  _344
REMARK  139  A    between atoms: _344  and  _345
REMARK  140  A    between atoms: _349  and  _351
REMARK  141  A    between atoms: _351  and  _352
REMARK  142  A    between atoms: _351  and  _354
REMARK  143  A    between atoms: _354  and  _355
REMARK  144  A    between atoms: _358  and  _360
REMARK  145  A    between atoms: _360  and  _361
REMARK  146  A    between atoms: _364  and  _366
REMARK  147  A    between atoms: _366  and  _367
REMARK  148  A    between atoms: _369  and  _371
REMARK  149  A    between atoms: _371  and  _372
REMARK  150  A    between atoms: _371  and  _374
REMARK  151  A    between atoms: _374  and  _375
REMARK  152  A    between atoms: _378  and  _380
REMARK  153  A    between atoms: _380  and  _381
REMARK  154  A    between atoms: _380  and  _383
REMARK  155  A    between atoms: _383  and  _384
REMARK  156  A    between atoms: _387  and  _389
REMARK  157  A    between atoms: _389  and  _390
REMARK  158  A    between atoms: _393  and  _395
REMARK  159  A    between atoms: _395  and  _396
REMARK  160  A    between atoms: _395  and  _398
REMARK  161  A    between atoms: _398  and  _399
REMARK  162  A    between atoms: _399  and  _400
REMARK  163  A    between atoms: _403  and  _405
REMARK  164  A    between atoms: _405  and  _406
REMARK  165  A    between atoms: _405  and  _408
REMARK  166  A    between atoms: _411  and  _413
REMARK  167  A    between atoms: _413  and  _414
REMARK  168  A    between atoms: _413  and  _416
REMARK  169  A    between atoms: _416  and  _417
REMARK  170  A    between atoms: _420  and  _422
REMARK  171  A    between atoms: _422  and  _423
REMARK  172  A    between atoms: _425  and  _427
REMARK  173  A    between atoms: _427  and  _428
REMARK  174  A    between atoms: _427  and  _430
REMARK  175  A    between atoms: _433  and  _435
REMARK  176  A    between atoms: _435  and  _436
REMARK  177  A    between atoms: _438  and  _440
REMARK  178  A    between atoms: _440  and  _441
REMARK  179  A    between atoms: _440  and  _443
REMARK  180  A    between atoms: _443  and  _444
REMARK  181  A    between atoms: _447  and  _449
REMARK  182  A    between atoms: _449  and  _450
REMARK  183  A    between atoms: _449  and  _452
REMARK  184  A    between atoms: _452  and  _453
REMARK  185  A    between atoms: _458  and  _460
REMARK  186  A    between atoms: _460  and  _461
REMARK  187  A    between atoms: _460  and  _463
REMARK  188  A    between atoms: _466  and  _468
REMARK  189  A    between atoms: _468  and  _469
REMARK  190  A    between atoms: _468  and  _471
REMARK  191  A    between atoms: _471  and  _472
REMARK  192  A    between atoms: _472  and  _473
REMARK  193  A    between atoms: _478  and  _480
REMARK  194  A    between atoms: _480  and  _481
REMARK  195  A    between atoms: _485  and  _486
REMARK  196  A    between atoms: _491  and  _493
REMARK  197  A    between atoms: _493  and  _494
REMARK  198  A    between atoms: _493  and  _496
REMARK  199  A    between atoms: _496  and  _497
REMARK  200  A    between atoms: _497  and  _498
REMARK  201  A    between atoms: _501  and  _503
REMARK  202  A    between atoms: _503  and  _504
REMARK  203  A    between atoms: _503  and  _506
REMARK  204  A    between atoms: _509  and  _511
REMARK  205  A    between atoms: _511  and  _512
REMARK  206  A    between atoms: _511  and  _514
REMARK  207  A    between atoms: _514  and  _515
REMARK  208  A    between atoms: _519  and  _520
REMARK  209  A    between atoms: _525  and  _527
REMARK  210  A    between atoms: _527  and  _528
REMARK  211  A    between atoms: _527  and  _530
REMARK  212  A    between atoms: _530  and  _531
REMARK  213  A    between atoms: _534  and  _536
REMARK  214  A    between atoms: _536  and  _537
REMARK  215  A    between atoms: _540  and  _542
REMARK  216  A    between atoms: _542  and  _543
REMARK  217  A    between atoms: _542  and  _545
REMARK  218  A    between atoms: _545  and  _546
REMARK  219  A    between atoms: _549  and  _551
REMARK  220  A    between atoms: _551  and  _552
REMARK  221  A    between atoms: _551  and  _554
REMARK  222  A    between atoms: _554  and  _555
REMARK  223  A    between atoms: _557  and  _559
REMARK  224  A    between atoms: _559  and  _560
REMARK  225  A    between atoms: _562  and  _564
REMARK  226  A    between atoms: _564  and  _565
REMARK  227  A    between atoms: _564  and  _567
REMARK  228  A    between atoms: _567  and  _568
REMARK  229  A    between atoms: _571  and  _573
REMARK  230  A    between atoms: _573  and  _574
REMARK  231  A    between atoms: _573  and  _576
REMARK                            x       y       z     vdW  Elec       q    Type
REMARK                         _______ _______ _______ _____ _____    ______ ____
ROOT
ATOM      1  O   HOH     1      -4.116  -9.764   0.087  0.00  0.00    +0.000 OA
ENDROOT
TORSDOF 0
REMARK  Name = ../refined-set-2016/4xu2/4xu2_pocket.pdb
REMARK  231 active torsions:
REMARK  status: ('A' for Active; 'I' for Inactive)
REMARK    1  A    between atoms: _1  and  _3
REMARK    2  A    between atoms: _3  and  _4
REMARK    3  A    between atoms: _3  and  _6
REMARK    4  A    between atoms: _6  and  _7
REMARK    5  A    between atoms: _10  and  _12
REMARK    6  A    between atoms: _12  and  _13
REMARK    7  A    between atoms: _15  and  _17
REMARK    8  A    between atoms: _17  and  _18
REMARK    9  A    between atoms: _17  and  _20
REMARK   10  A    between atoms: _20  and  _21
REMARK   11  A    between atoms: _23  and  _25
REMARK   12  A    between atoms: _25  and  _26
REMARK   13  A    between atoms: _25  and  _28
REMARK   14  A    between atoms: _28  and  _29
REMARK   15  A    between atoms: _32  and  _34
REMARK   16  A    between atoms: _34  and  _35
REMARK   17  A    between atoms: _34  and  _37
REMARK   18  A    between atoms: _37  and  _38
REMARK   19  A    between atoms: _43  and  _45
REMARK   20  A    between atoms: _45  and  _46
REMARK   21  A    between atoms: _49  and  _51
REMARK   22  A    between atoms: _51  and  _52
REMARK   23  A    between atoms: _51  and  _54
REMARK   24  A    between atoms: _54  and  _55
REMARK   25  A    between atoms: _58  and  _60
REMARK   26  A    between atoms: _60  and  _61
REMARK   27  A    between atoms: _60  and  _63
REMARK   28  A    between atoms: _63  and  _64
REMARK   29  A    between atoms: _67  and  _69
REMARK   30  A    between atoms: _69  and  _70
REMARK   31  A    between atoms: _69  and  _72
REMARK   32  A    between atoms: _72  and  _73
REMARK   33  A    between atoms: _76  and  _78
REMARK   34  A    between atoms: _78  and  _79
REMARK   35  A    between atoms: _82  and  _84
REMARK   36  A    between atoms: _84  and  _85
REMARK   37  A    between atoms: _84  and  _87
REMARK   38  A    between atoms: _87  and  _88
REMARK   39  A    between atoms: _88  and  _89
REMARK   40  A    between atoms: _94  and  _96
REMARK   41  A    between atoms: _96  and  _97
REMARK   42  A    between atoms: _96  and  _99
REMARK   43  A    between atoms: _99  and  _100
REMARK   44  A    between atoms: _103  and  _105
REMARK   45  A    between atoms: _105  and  _106
REMARK   46  A    between atoms: _109  and  _111
REMARK   47  A    between atoms: _111  and  _112
REMARK   48  A    between atoms: _114  and  _116
REMARK   49  A    between atoms: _116  and  _117
REMARK   50  A    between atoms: _116  and  _119
REMARK   51  A    between atoms: _119  and  _120
REMARK   52  A    between atoms: _120  and  _121
REMARK   53  A    between atoms: _121  and  _122
REMARK   54  A    between atoms: _131  and  _133
REMARK   55  A    between atoms: _133  and  _134
REMARK   56  A    between atoms: _136  and  _138
REMARK   57  A    between atoms: _138  and  _139
REMARK   58  A    between atoms: _138  and  _141
REMARK   59  A    between atoms: _141  and  _142
REMARK   60  A    between atoms: _142  and  _143
REMARK   61  A    between atoms: _143  and  _144
REMARK   62  A    between atoms: _153  and  _155
REMARK   63  A    between atoms: _155  and  _156
REMARK   64  A    between atoms: _155  and  _158
REMARK   65  A    between atoms: _158  and  _159
REMARK   66  A    between atoms: _164  and  _166
REMARK   67  A    between atoms: _166  and  _167
REMARK   68  A    between atoms: _169  and  _171
REMARK   69  A    between atoms: _171  and  _172
REMARK   70  A    between atoms: _171  and  _174
REMARK   71  A    between atoms: _174  and  _175
REMARK   72  A    between atoms: _175  and  _176
REMARK   73  A    between atoms: _176  and  _177
REMARK   74  A    between atoms: _186  and  _188
REMARK   75  A    between atoms: _188  and  _189
REMARK   76  A    between atoms: _191  and  _193
REMARK   77  A    between atoms: _193  and  _194
REMARK   78  A    between atoms: _193  and  _196
REMARK   79  A    between atoms: _196  and  _197
REMARK   80  A    between atoms: _207  and  _209
REMARK   81  A    between atoms: _209  and  _210
REMARK   82  A    between atoms: _213  and  _215
REMARK   83  A    between atoms: _215  and  _216
REMARK   84  A    between atoms: _219  and  _221
REMARK   85  A    between atoms: _221  and  _222
REMARK   86  A    between atoms: _221  and  _224
REMARK   87  A    between atoms: _224  and  _225
REMARK   88  A    between atoms: _228  and  _230
REMARK   89  A    between atoms: _230  and  _231
REMARK   90  A    between atoms: _230  and  _233
REMARK   91  A    between atoms: _233  and  _234
REMARK   92  A    between atoms: _234  and  _235
REMARK   93  A    between atoms: _240  and  _242
REMARK   94  A    between atoms: _242  and  _243
REMARK   95  A    between atoms: _242  and  _245
REMARK   96  A    between atoms: _245  and  _246
REMARK   97  A    between atoms: _249  and  _251
REMARK   98  A    between atoms: _251  and  _252
REMARK   99  A    between atoms: _251  and  _254
REMARK  100  A    between atoms: _254  and  _255
REMARK  101  A    between atoms: _258  and  _260
REMARK  102  A    between atoms: _260  and  _261
REMARK  103  A    between atoms: _260  and  _263
REMARK  104  A    between atoms: _263  and  _264
REMARK  105  A    between atoms: _267  and  _269
REMARK  106  A    between atoms: _269  and  _270
REMARK  107  A    between atoms: _269  and  _272
REMARK  108  A    between atoms: _272  and  _273
REMARK  109  A    between atoms: _275  and  _277
REMARK  110  A    between atoms: _277  and  _278
REMARK  111  A    between atoms: _277  and  _280
REMARK  112  A    between atoms: _283  and  _285
REMARK  113  A    between atoms: _285  and  _286
REMARK  114  A    between atoms: _285  and  _288
REMARK  115  A    between atoms: _288  and  _289
REMARK  116  A    between atoms: _289  and  _290
REMARK  117  A    between atoms: _290  and  _291
REMARK  118  A    between atoms: _291  and  _292
REMARK  119  A    between atoms: _297  and  _298
REMARK  120  A    between atoms: _303  and  _305
REMARK  121  A    between atoms: _305  and  _306
REMARK  122  A    between atoms: _305  and  _308
REMARK  123  A    between atoms: _308  and  _309
REMARK  124  A    between atoms: _314  and  _316
REMARK  125  A    between atoms: _316  and  _317
REMARK  126  A    between atoms: _316  and  _319
REMARK  127  A    between atoms: _319  and  _320
REMARK  128  A    between atoms: _323  and  _325
REMARK  129  A    between atoms: _325  and  _326
REMARK  130  A    between atoms: _325  and  _328
REMARK  131  A    between atoms: _331  and  _333
REMARK  132  A    between atoms: _333  and  _334
REMARK  133  A    between atoms: _336  and  _338
REMARK  134  A    between atoms: _338  and  _339
REMARK  135  A    between atoms: _338  and  _341
REMARK  136  A    between atoms: _341  and  _342
REMARK  137  A    between atoms: _342  and  _343
REMARK  138  A    between atoms: _343  and  _344
REMARK  139  A    between atoms: _344  and  _345
REMARK  140  A    between atoms: _349  and  _351
REMARK  141  A    between atoms: _351  and  _352
REMARK  142  A    between atoms: _351  and  _354
REMARK  143  A    between atoms: _354  and  _355
REMARK  144  A    between atoms: _358  and  _360
REMARK  145  A    between atoms: _360  and  _361
REMARK  146  A    between atoms: _364  and  _366
REMARK  147  A    between atoms: _366  and  _367
REMARK  148  A    between atoms: _369  and  _371
REMARK  149  A    between atoms: _371  and  _372
REMARK  150  A    between atoms: _371  and  _374
REMARK  151  A    between atoms: _374  and  _375
REMARK  152  A    between atoms: _378  and  _380
REMARK  153  A    between atoms: _380  and  _381
REMARK  154  A    between atoms: _380  and  _383
REMARK  155  A    between atoms: _383  and  _384
REMARK  156  A    between atoms: _387  and  _389
REMARK  157  A    between atoms: _389  and  _390
REMARK  158  A    between atoms: _393  and  _395
REMARK  159  A    between atoms: _395  and  _396
REMARK  160  A    between atoms: _395  and  _398
REMARK  161  A    between atoms: _398  and  _399
REMARK  162  A    between atoms: _399  and  _400
REMARK  163  A    between atoms: _403  and  _405
REMARK  164  A    between atoms: _405  and  _406
REMARK  165  A    between atoms: _405  and  _408
REMARK  166  A    between atoms: _411  and  _413
REMARK  167  A    between atoms: _413  and  _414
REMARK  168  A    between atoms: _413  and  _416
REMARK  169  A    between atoms: _416  and  _417
REMARK  170  A    between atoms: _420  and  _422
REMARK  171  A    between atoms: _422  and  _423
REMARK  172  A    between atoms: _425  and  _427
REMARK  173  A    between atoms: _427  and  _428
REMARK  174  A    between atoms: _427  and  _430
REMARK  175  A    between atoms: _433  and  _435
REMARK  176  A    between atoms: _435  and  _436
REMARK  177  A    between atoms: _438  and  _440
REMARK  178  A    between atoms: _440  and  _441
REMARK  179  A    between atoms: _440  and  _443
REMARK  180  A    between atoms: _443  and  _444
REMARK  181  A    between atoms: _447  and  _449
REMARK  182  A    between atoms: _449  and  _450
REMARK  183  A    between atoms: _449  and  _452
REMARK  184  A    between atoms: _452  and  _453
REMARK  185  A    between atoms: _458  and  _460
REMARK  186  A    between atoms: _460  and  _461
REMARK  187  A    between atoms: _460  and  _463
REMARK  188  A    between atoms: _466  and  _468
REMARK  189  A    between atoms: _468  and  _469
REMARK  190  A    between atoms: _468  and  _471
REMARK  191  A    between atoms: _471  and  _472
REMARK  192  A    between atoms: _472  and  _473
REMARK  193  A    between atoms: _478  and  _480
REMARK  194  A    between atoms: _480  and  _481
REMARK  195  A    between atoms: _485  and  _486
REMARK  196  A    between atoms: _491  and  _493
REMARK  197  A    between atoms: _493  and  _494
REMARK  198  A    between atoms: _493  and  _496
REMARK  199  A    between atoms: _496  and  _497
REMARK  200  A    between atoms: _497  and  _498
REMARK  201  A    between atoms: _501  and  _503
REMARK  202  A    between atoms: _503  and  _504
REMARK  203  A    between atoms: _503  and  _506
REMARK  204  A    between atoms: _509  and  _511
REMARK  205  A    between atoms: _511  and  _512
REMARK  206  A    between atoms: _511  and  _514
REMARK  207  A    between atoms: _514  and  _515
REMARK  208  A    between atoms: _519  and  _520
REMARK  209  A    between atoms: _525  and  _527
REMARK  210  A    between atoms: _527  and  _528
REMARK  211  A    between atoms: _527  and  _530
REMARK  212  A    between atoms: _530  and  _531
REMARK  213  A    between atoms: _534  and  _536
REMARK  214  A    between atoms: _536  and  _537
REMARK  215  A    between atoms: _540  and  _542
REMARK  216  A    between atoms: _542  and  _543
REMARK  217  A    between atoms: _542  and  _545
REMARK  218  A    between atoms: _545  and  _546
REMARK  219  A    between atoms: _549  and  _551
REMARK  220  A    between atoms: _551  and  _552
REMARK  221  A    between atoms: _551  and  _554
REMARK  222  A    between atoms: _554  and  _555
REMARK  223  A    between atoms: _557  and  _559
REMARK  224  A    between atoms: _559  and  _560
REMARK  225  A    between atoms: _562  and  _564
REMARK  226  A    between atoms: _564  and  _565
REMARK  227  A    between atoms: _564  and  _567
REMARK  228  A    between atoms: _567  and  _568
REMARK  229  A    between atoms: _571  and  _573
REMARK  230  A    between atoms: _573  and  _574
REMARK  231  A    between atoms: _573  and  _576
REMARK                            x       y       z     vdW  Elec       q    Type
REMARK                         _______ _______ _______ _____ _____    ______ ____
ROOT
ATOM      1  O   HOH     1       3.399  -1.751  13.391  0.00  0.00    +0.000 OA
ENDROOT
TORSDOF 0
REMARK  Name = ../refined-set-2016/4xu2/4xu2_pocket.pdb
REMARK  231 active torsions:
REMARK  status: ('A' for Active; 'I' for Inactive)
REMARK    1  A    between atoms: _1  and  _3
REMARK    2  A    between atoms: _3  and  _4
REMARK    3  A    between atoms: _3  and  _6
REMARK    4  A    between atoms: _6  and  _7
REMARK    5  A    between atoms: _10  and  _12
REMARK    6  A    between atoms: _12  and  _13
REMARK    7  A    between atoms: _15  and  _17
REMARK    8  A    between atoms: _17  and  _18
REMARK    9  A    between atoms: _17  and  _20
REMARK   10  A    between atoms: _20  and  _21
REMARK   11  A    between atoms: _23  and  _25
REMARK   12  A    between atoms: _25  and  _26
REMARK   13  A    between atoms: _25  and  _28
REMARK   14  A    between atoms: _28  and  _29
REMARK   15  A    between atoms: _32  and  _34
REMARK   16  A    between atoms: _34  and  _35
REMARK   17  A    between atoms: _34  and  _37
REMARK   18  A    between atoms: _37  and  _38
REMARK   19  A    between atoms: _43  and  _45
REMARK   20  A    between atoms: _45  and  _46
REMARK   21  A    between atoms: _49  and  _51
REMARK   22  A    between atoms: _51  and  _52
REMARK   23  A    between atoms: _51  and  _54
REMARK   24  A    between atoms: _54  and  _55
REMARK   25  A    between atoms: _58  and  _60
REMARK   26  A    between atoms: _60  and  _61
REMARK   27  A    between atoms: _60  and  _63
REMARK   28  A    between atoms: _63  and  _64
REMARK   29  A    between atoms: _67  and  _69
REMARK   30  A    between atoms: _69  and  _70
REMARK   31  A    between atoms: _69  and  _72
REMARK   32  A    between atoms: _72  and  _73
REMARK   33  A    between atoms: _76  and  _78
REMARK   34  A    between atoms: _78  and  _79
REMARK   35  A    between atoms: _82  and  _84
REMARK   36  A    between atoms: _84  and  _85
REMARK   37  A    between atoms: _84  and  _87
REMARK   38  A    between atoms: _87  and  _88
REMARK   39  A    between atoms: _88  and  _89
REMARK   40  A    between atoms: _94  and  _96
REMARK   41  A    between atoms: _96  and  _97
REMARK   42  A    between atoms: _96  and  _99
REMARK   43  A    between atoms: _99  and  _100
REMARK   44  A    between atoms: _103  and  _105
REMARK   45  A    between atoms: _105  and  _106
REMARK   46  A    between atoms: _109  and  _111
REMARK   47  A    between atoms: _111  and  _112
REMARK   48  A    between atoms: _114  and  _116
REMARK   49  A    between atoms: _116  and  _117
REMARK   50  A    between atoms: _116  and  _119
REMARK   51  A    between atoms: _119  and  _120
REMARK   52  A    between atoms: _120  and  _121
REMARK   53  A    between atoms: _121  and  _122
REMARK   54  A    between atoms: _131  and  _133
REMARK   55  A    between atoms: _133  and  _134
REMARK   56  A    between atoms: _136  and  _138
REMARK   57  A    between atoms: _138  and  _139
REMARK   58  A    between atoms: _138  and  _141
REMARK   59  A    between atoms: _141  and  _142
REMARK   60  A    between atoms: _142  and  _143
REMARK   61  A    between atoms: _143  and  _144
REMARK   62  A    between atoms: _153  and  _155
REMARK   63  A    between atoms: _155  and  _156
REMARK   64  A    between atoms: _155  and  _158
REMARK   65  A    between atoms: _158  and  _159
REMARK   66  A    between atoms: _164  and  _166
REMARK   67  A    between atoms: _166  and  _167
REMARK   68  A    between atoms: _169  and  _171
REMARK   69  A    between atoms: _171  and  _172
REMARK   70  A    between atoms: _171  and  _174
REMARK   71  A    between atoms: _174  and  _175
REMARK   72  A    between atoms: _175  and  _176
REMARK   73  A    between atoms: _176  and  _177
REMARK   74  A    between atoms: _186  and  _188
REMARK   75  A    between atoms: _188  and  _189
REMARK   76  A    between atoms: _191  and  _193
REMARK   77  A    between atoms: _193  and  _194
REMARK   78  A    between atoms: _193  and  _196
REMARK   79  A    between atoms: _196  and  _197
REMARK   80  A    between atoms: _207  and  _209
REMARK   81  A    between atoms: _209  and  _210
REMARK   82  A    between atoms: _213  and  _215
REMARK   83  A    between atoms: _215  and  _216
REMARK   84  A    between atoms: _219  and  _221
REMARK   85  A    between atoms: _221  and  _222
REMARK   86  A    between atoms: _221  and  _224
REMARK   87  A    between atoms: _224  and  _225
REMARK   88  A    between atoms: _228  and  _230
REMARK   89  A    between atoms: _230  and  _231
REMARK   90  A    between atoms: _230  and  _233
REMARK   91  A    between atoms: _233  and  _234
REMARK   92  A    between atoms: _234  and  _235
REMARK   93  A    between atoms: _240  and  _242
REMARK   94  A    between atoms: _242  and  _243
REMARK   95  A    between atoms: _242  and  _245
REMARK   96  A    between atoms: _245  and  _246
REMARK   97  A    between atoms: _249  and  _251
REMARK   98  A    between atoms: _251  and  _252
REMARK   99  A    between atoms: _251  and  _254
REMARK  100  A    between atoms: _254  and  _255
REMARK  101  A    between atoms: _258  and  _260
REMARK  102  A    between atoms: _260  and  _261
REMARK  103  A    between atoms: _260  and  _263
REMARK  104  A    between atoms: _263  and  _264
REMARK  105  A    between atoms: _267  and  _269
REMARK  106  A    between atoms: _269  and  _270
REMARK  107  A    between atoms: _269  and  _272
REMARK  108  A    between atoms: _272  and  _273
REMARK  109  A    between atoms: _275  and  _277
REMARK  110  A    between atoms: _277  and  _278
REMARK  111  A    between atoms: _277  and  _280
REMARK  112  A    between atoms: _283  and  _285
REMARK  113  A    between atoms: _285  and  _286
REMARK  114  A    between atoms: _285  and  _288
REMARK  115  A    between atoms: _288  and  _289
REMARK  116  A    between atoms: _289  and  _290
REMARK  117  A    between atoms: _290  and  _291
REMARK  118  A    between atoms: _291  and  _292
REMARK  119  A    between atoms: _297  and  _298
REMARK  120  A    between atoms: _303  and  _305
REMARK  121  A    between atoms: _305  and  _306
REMARK  122  A    between atoms: _305  and  _308
REMARK  123  A    between atoms: _308  and  _309
REMARK  124  A    between atoms: _314  and  _316
REMARK  125  A    between atoms: _316  and  _317
REMARK  126  A    between atoms: _316  and  _319
REMARK  127  A    between atoms: _319  and  _320
REMARK  128  A    between atoms: _323  and  _325
REMARK  129  A    between atoms: _325  and  _326
REMARK  130  A    between atoms: _325  and  _328
REMARK  131  A    between atoms: _331  and  _333
REMARK  132  A    between atoms: _333  and  _334
REMARK  133  A    between atoms: _336  and  _338
REMARK  134  A    between atoms: _338  and  _339
REMARK  135  A    between atoms: _338  and  _341
REMARK  136  A    between atoms: _341  and  _342
REMARK  137  A    between atoms: _342  and  _343
REMARK  138  A    between atoms: _343  and  _344
REMARK  139  A    between atoms: _344  and  _345
REMARK  140  A    between atoms: _349  and  _351
REMARK  141  A    between atoms: _351  and  _352
REMARK  142  A    between atoms: _351  and  _354
REMARK  143  A    between atoms: _354  and  _355
REMARK  144  A    between atoms: _358  and  _360
REMARK  145  A    between atoms: _360  and  _361
REMARK  146  A    between atoms: _364  and  _366
REMARK  147  A    between atoms: _366  and  _367
REMARK  148  A    between atoms: _369  and  _371
REMARK  149  A    between atoms: _371  and  _372
REMARK  150  A    between atoms: _371  and  _374
REMARK  151  A    between atoms: _374  and  _375
REMARK  152  A    between atoms: _378  and  _380
REMARK  153  A    between atoms: _380  and  _381
REMARK  154  A    between atoms: _380  and  _383
REMARK  155  A    between atoms: _383  and  _384
REMARK  156  A    between atoms: _387  and  _389
REMARK  157  A    between atoms: _389  and  _390
REMARK  158  A    between atoms: _393  and  _395
REMARK  159  A    between atoms: _395  and  _396
REMARK  160  A    between atoms: _395  and  _398
REMARK  161  A    between atoms: _398  and  _399
REMARK  162  A    between atoms: _399  and  _400
REMARK  163  A    between atoms: _403  and  _405
REMARK  164  A    between atoms: _405  and  _406
REMARK  165  A    between atoms: _405  and  _408
REMARK  166  A    between atoms: _411  and  _413
REMARK  167  A    between atoms: _413  and  _414
REMARK  168  A    between atoms: _413  and  _416
REMARK  169  A    between atoms: _416  and  _417
REMARK  170  A    between atoms: _420  and  _422
REMARK  171  A    between atoms: _422  and  _423
REMARK  172  A    between atoms: _425  and  _427
REMARK  173  A    between atoms: _427  and  _428
REMARK  174  A    between atoms: _427  and  _430
REMARK  175  A    between atoms: _433  and  _435
REMARK  176  A    between atoms: _435  and  _436
REMARK  177  A    between atoms: _438  and  _440
REMARK  178  A    between atoms: _440  and  _441
REMARK  179  A    between atoms: _440  and  _443
REMARK  180  A    between atoms: _443  and  _444
REMARK  181  A    between atoms: _447  and  _449
REMARK  182  A    between atoms: _449  and  _450
REMARK  183  A    between atoms: _449  and  _452
REMARK  184  A    between atoms: _452  and  _453
REMARK  185  A    between atoms: _458  and  _460
REMARK  186  A    between atoms: _460  and  _461
REMARK  187  A    between atoms: _460  and  _463
REMARK  188  A    between atoms: _466  and  _468
REMARK  189  A    between atoms: _468  and  _469
REMARK  190  A    between atoms: _468  and  _471
REMARK  191  A    between atoms: _471  and  _472
REMARK  192  A    between atoms: _472  and  _473
REMARK  193  A    between atoms: _478  and  _480
REMARK  194  A    between atoms: _480  and  _481
REMARK  195  A    between atoms: _485  and  _486
REMARK  196  A    between atoms: _491  and  _493
REMARK  197  A    between atoms: _493  and  _494
REMARK  198  A    between atoms: _493  and  _496
REMARK  199  A    between atoms: _496  and  _497
REMARK  200  A    between atoms: _497  and  _498
REMARK  201  A    between atoms: _501  and  _503
REMARK  202  A    between atoms: _503  and  _504
REMARK  203  A    between atoms: _503  and  _506
REMARK  204  A    between atoms: _509  and  _511
REMARK  205  A    between atoms: _511  and  _512
REMARK  206  A    between atoms: _511  and  _514
REMARK  207  A    between atoms: _514  and  _515
REMARK  208  A    between atoms: _519  and  _520
REMARK  209  A    between atoms: _525  and  _527
REMARK  210  A    between atoms: _527  and  _528
REMARK  211  A    between atoms: _527  and  _530
REMARK  212  A    between atoms: _530  and  _531
REMARK  213  A    between atoms: _534  and  _536
REMARK  214  A    between atoms: _536  and  _537
REMARK  215  A    between atoms: _540  and  _542
REMARK  216  A    between atoms: _542  and  _543
REMARK  217  A    between atoms: _542  and  _545
REMARK  218  A    between atoms: _545  and  _546
REMARK  219  A    between atoms: _549  and  _551
REMARK  220  A    between atoms: _551  and  _552
REMARK  221  A    between atoms: _551  and  _554
REMARK  222  A    between atoms: _554  and  _555
REMARK  223  A    between atoms: _557  and  _559
REMARK  224  A    between atoms: _559  and  _560
REMARK  225  A    between atoms: _562  and  _564
REMARK  226  A    between atoms: _564  and  _565
REMARK  227  A    between atoms: _564  and  _567
REMARK  228  A    between atoms: _567  and  _568
REMARK  229  A    between atoms: _571  and  _573
REMARK  230  A    between atoms: _573  and  _574
REMARK  231  A    between atoms: _573  and  _576
REMARK                            x       y       z     vdW  Elec       q    Type
REMARK                         _______ _______ _______ _____ _____    ______ ____
ROOT
ATOM      1  O   HOH     1      -0.532   0.570  11.428  0.00  0.00    +0.000 OA
ENDROOT
TORSDOF 0
REMARK  Name = ../refined-set-2016/4xu2/4xu2_pocket.pdb
REMARK  231 active torsions:
REMARK  status: ('A' for Active; 'I' for Inactive)
REMARK    1  A    between atoms: _1  and  _3
REMARK    2  A    between atoms: _3  and  _4
REMARK    3  A    between atoms: _3  and  _6
REMARK    4  A    between atoms: _6  and  _7
REMARK    5  A    between atoms: _10  and  _12
REMARK    6  A    between atoms: _12  and  _13
REMARK    7  A    between atoms: _15  and  _17
REMARK    8  A    between atoms: _17  and  _18
REMARK    9  A    between atoms: _17  and  _20
REMARK   10  A    between atoms: _20  and  _21
REMARK   11  A    between atoms: _23  and  _25
REMARK   12  A    between atoms: _25  and  _26
REMARK   13  A    between atoms: _25  and  _28
REMARK   14  A    between atoms: _28  and  _29
REMARK   15  A    between atoms: _32  and  _34
REMARK   16  A    between atoms: _34  and  _35
REMARK   17  A    between atoms: _34  and  _37
REMARK   18  A    between atoms: _37  and  _38
REMARK   19  A    between atoms: _43  and  _45
REMARK   20  A    between atoms: _45  and  _46
REMARK   21  A    between atoms: _49  and  _51
REMARK   22  A    between atoms: _51  and  _52
REMARK   23  A    between atoms: _51  and  _54
REMARK   24  A    between atoms: _54  and  _55
REMARK   25  A    between atoms: _58  and  _60
REMARK   26  A    between atoms: _60  and  _61
REMARK   27  A    between atoms: _60  and  _63
REMARK   28  A    between atoms: _63  and  _64
REMARK   29  A    between atoms: _67  and  _69
REMARK   30  A    between atoms: _69  and  _70
REMARK   31  A    between atoms: _69  and  _72
REMARK   32  A    between atoms: _72  and  _73
REMARK   33  A    between atoms: _76  and  _78
REMARK   34  A    between atoms: _78  and  _79
REMARK   35  A    between atoms: _82  and  _84
REMARK   36  A    between atoms: _84  and  _85
REMARK   37  A    between atoms: _84  and  _87
REMARK   38  A    between atoms: _87  and  _88
REMARK   39  A    between atoms: _88  and  _89
REMARK   40  A    between atoms: _94  and  _96
REMARK   41  A    between atoms: _96  and  _97
REMARK   42  A    between atoms: _96  and  _99
REMARK   43  A    between atoms: _99  and  _100
REMARK   44  A    between atoms: _103  and  _105
REMARK   45  A    between atoms: _105  and  _106
REMARK   46  A    between atoms: _109  and  _111
REMARK   47  A    between atoms: _111  and  _112
REMARK   48  A    between atoms: _114  and  _116
REMARK   49  A    between atoms: _116  and  _117
REMARK   50  A    between atoms: _116  and  _119
REMARK   51  A    between atoms: _119  and  _120
REMARK   52  A    between atoms: _120  and  _121
REMARK   53  A    between atoms: _121  and  _122
REMARK   54  A    between atoms: _131  and  _133
REMARK   55  A    between atoms: _133  and  _134
REMARK   56  A    between atoms: _136  and  _138
REMARK   57  A    between atoms: _138  and  _139
REMARK   58  A    between atoms: _138  and  _141
REMARK   59  A    between atoms: _141  and  _142
REMARK   60  A    between atoms: _142  and  _143
REMARK   61  A    between atoms: _143  and  _144
REMARK   62  A    between atoms: _153  and  _155
REMARK   63  A    between atoms: _155  and  _156
REMARK   64  A    between atoms: _155  and  _158
REMARK   65  A    between atoms: _158  and  _159
REMARK   66  A    between atoms: _164  and  _166
REMARK   67  A    between atoms: _166  and  _167
REMARK   68  A    between atoms: _169  and  _171
REMARK   69  A    between atoms: _171  and  _172
REMARK   70  A    between atoms: _171  and  _174
REMARK   71  A    between atoms: _174  and  _175
REMARK   72  A    between atoms: _175  and  _176
REMARK   73  A    between atoms: _176  and  _177
REMARK   74  A    between atoms: _186  and  _188
REMARK   75  A    between atoms: _188  and  _189
REMARK   76  A    between atoms: _191  and  _193
REMARK   77  A    between atoms: _193  and  _194
REMARK   78  A    between atoms: _193  and  _196
REMARK   79  A    between atoms: _196  and  _197
REMARK   80  A    between atoms: _207  and  _209
REMARK   81  A    between atoms: _209  and  _210
REMARK   82  A    between atoms: _213  and  _215
REMARK   83  A    between atoms: _215  and  _216
REMARK   84  A    between atoms: _219  and  _221
REMARK   85  A    between atoms: _221  and  _222
REMARK   86  A    between atoms: _221  and  _224
REMARK   87  A    between atoms: _224  and  _225
REMARK   88  A    between atoms: _228  and  _230
REMARK   89  A    between atoms: _230  and  _231
REMARK   90  A    between atoms: _230  and  _233
REMARK   91  A    between atoms: _233  and  _234
REMARK   92  A    between atoms: _234  and  _235
REMARK   93  A    between atoms: _240  and  _242
REMARK   94  A    between atoms: _242  and  _243
REMARK   95  A    between atoms: _242  and  _245
REMARK   96  A    between atoms: _245  and  _246
REMARK   97  A    between atoms: _249  and  _251
REMARK   98  A    between atoms: _251  and  _252
REMARK   99  A    between atoms: _251  and  _254
REMARK  100  A    between atoms: _254  and  _255
REMARK  101  A    between atoms: _258  and  _260
REMARK  102  A    between atoms: _260  and  _261
REMARK  103  A    between atoms: _260  and  _263
REMARK  104  A    between atoms: _263  and  _264
REMARK  105  A    between atoms: _267  and  _269
REMARK  106  A    between atoms: _269  and  _270
REMARK  107  A    between atoms: _269  and  _272
REMARK  108  A    between atoms: _272  and  _273
REMARK  109  A    between atoms: _275  and  _277
REMARK  110  A    between atoms: _277  and  _278
REMARK  111  A    between atoms: _277  and  _280
REMARK  112  A    between atoms: _283  and  _285
REMARK  113  A    between atoms: _285  and  _286
REMARK  114  A    between atoms: _285  and  _288
REMARK  115  A    between atoms: _288  and  _289
REMARK  116  A    between atoms: _289  and  _290
REMARK  117  A    between atoms: _290  and  _291
REMARK  118  A    between atoms: _291  and  _292
REMARK  119  A    between atoms: _297  and  _298
REMARK  120  A    between atoms: _303  and  _305
REMARK  121  A    between atoms: _305  and  _306
REMARK  122  A    between atoms: _305  and  _308
REMARK  123  A    between atoms: _308  and  _309
REMARK  124  A    between atoms: _314  and  _316
REMARK  125  A    between atoms: _316  and  _317
REMARK  126  A    between atoms: _316  and  _319
REMARK  127  A    between atoms: _319  and  _320
REMARK  128  A    between atoms: _323  and  _325
REMARK  129  A    between atoms: _325  and  _326
REMARK  130  A    between atoms: _325  and  _328
REMARK  131  A    between atoms: _331  and  _333
REMARK  132  A    between atoms: _333  and  _334
REMARK  133  A    between atoms: _336  and  _338
REMARK  134  A    between atoms: _338  and  _339
REMARK  135  A    between atoms: _338  and  _341
REMARK  136  A    between atoms: _341  and  _342
REMARK  137  A    between atoms: _342  and  _343
REMARK  138  A    between atoms: _343  and  _344
REMARK  139  A    between atoms: _344  and  _345
REMARK  140  A    between atoms: _349  and  _351
REMARK  141  A    between atoms: _351  and  _352
REMARK  142  A    between atoms: _351  and  _354
REMARK  143  A    between atoms: _354  and  _355
REMARK  144  A    between atoms: _358  and  _360
REMARK  145  A    between atoms: _360  and  _361
REMARK  146  A    between atoms: _364  and  _366
REMARK  147  A    between atoms: _366  and  _367
REMARK  148  A    between atoms: _369  and  _371
REMARK  149  A    between atoms: _371  and  _372
REMARK  150  A    between atoms: _371  and  _374
REMARK  151  A    between atoms: _374  and  _375
REMARK  152  A    between atoms: _378  and  _380
REMARK  153  A    between atoms: _380  and  _381
REMARK  154  A    between atoms: _380  and  _383
REMARK  155  A    between atoms: _383  and  _384
REMARK  156  A    between atoms: _387  and  _389
REMARK  157  A    between atoms: _389  and  _390
REMARK  158  A    between atoms: _393  and  _395
REMARK  159  A    between atoms: _395  and  _396
REMARK  160  A    between atoms: _395  and  _398
REMARK  161  A    between atoms: _398  and  _399
REMARK  162  A    between atoms: _399  and  _400
REMARK  163  A    between atoms: _403  and  _405
REMARK  164  A    between atoms: _405  and  _406
REMARK  165  A    between atoms: _405  and  _408
REMARK  166  A    between atoms: _411  and  _413
REMARK  167  A    between atoms: _413  and  _414
REMARK  168  A    between atoms: _413  and  _416
REMARK  169  A    between atoms: _416  and  _417
REMARK  170  A    between atoms: _420  and  _422
REMARK  171  A    between atoms: _422  and  _423
REMARK  172  A    between atoms: _425  and  _427
REMARK  173  A    between atoms: _427  and  _428
REMARK  174  A    between atoms: _427  and  _430
REMARK  175  A    between atoms: _433  and  _435
REMARK  176  A    between atoms: _435  and  _436
REMARK  177  A    between atoms: _438  and  _440
REMARK  178  A    between atoms: _440  and  _441
REMARK  179  A    between atoms: _440  and  _443
REMARK  180  A    between atoms: _443  and  _444
REMARK  181  A    between atoms: _447  and  _449
REMARK  182  A    between atoms: _449  and  _450
REMARK  183  A    between atoms: _449  and  _452
REMARK  184  A    between atoms: _452  and  _453
REMARK  185  A    between atoms: _458  and  _460
REMARK  186  A    between atoms: _460  and  _461
REMARK  187  A    between atoms: _460  and  _463
REMARK  188  A    between atoms: _466  and  _468
REMARK  189  A    between atoms: _468  and  _469
REMARK  190  A    between atoms: _468  and  _471
REMARK  191  A    between atoms: _471  and  _472
REMARK  192  A    between atoms: _472  and  _473
REMARK  193  A    between atoms: _478  and  _480
REMARK  194  A    between atoms: _480  and  _481
REMARK  195  A    between atoms: _485  and  _486
REMARK  196  A    between atoms: _491  and  _493
REMARK  197  A    between atoms: _493  and  _494
REMARK  198  A    between atoms: _493  and  _496
REMARK  199  A    between atoms: _496  and  _497
REMARK  200  A    between atoms: _497  and  _498
REMARK  201  A    between atoms: _501  and  _503
REMARK  202  A    between atoms: _503  and  _504
REMARK  203  A    between atoms: _503  and  _506
REMARK  204  A    between atoms: _509  and  _511
REMARK  205  A    between atoms: _511  and  _512
REMARK  206  A    between atoms: _511  and  _514
REMARK  207  A    between atoms: _514  and  _515
REMARK  208  A    between atoms: _519  and  _520
REMARK  209  A    between atoms: _525  and  _527
REMARK  210  A    between atoms: _527  and  _528
REMARK  211  A    between atoms: _527  and  _530
REMARK  212  A    between atoms: _530  and  _531
REMARK  213  A    between atoms: _534  and  _536
REMARK  214  A    between atoms: _536  and  _537
REMARK  215  A    between atoms: _540  and  _542
REMARK  216  A    between atoms: _542  and  _543
REMARK  217  A    between atoms: _542  and  _545
REMARK  218  A    between atoms: _545  and  _546
REMARK  219  A    between atoms: _549  and  _551
REMARK  220  A    between atoms: _551  and  _552
REMARK  221  A    between atoms: _551  and  _554
REMARK  222  A    between atoms: _554  and  _555
REMARK  223  A    between atoms: _557  and  _559
REMARK  224  A    between atoms: _559  and  _560
REMARK  225  A    between atoms: _562  and  _564
REMARK  226  A    between atoms: _564  and  _565
REMARK  227  A    between atoms: _564  and  _567
REMARK  228  A    between atoms: _567  and  _568
REMARK  229  A    between atoms: _571  and  _573
REMARK  230  A    between atoms: _573  and  _574
REMARK  231  A    between atoms: _573  and  _576
REMARK                            x       y       z     vdW  Elec       q    Type
REMARK                         _______ _______ _______ _____ _____    ______ ____
ROOT
ATOM      1  O   HOH     1       1.526   0.142  13.357  0.00  0.00    +0.000 OA
ENDROOT
TORSDOF 0
REMARK  Name = ../refined-set-2016/4xu2/4xu2_pocket.pdb
REMARK  231 active torsions:
REMARK  status: ('A' for Active; 'I' for Inactive)
REMARK    1  A    between atoms: _1  and  _3
REMARK    2  A    between atoms: _3  and  _4
REMARK    3  A    between atoms: _3  and  _6
REMARK    4  A    between atoms: _6  and  _7
REMARK    5  A    between atoms: _10  and  _12
REMARK    6  A    between atoms: _12  and  _13
REMARK    7  A    between atoms: _15  and  _17
REMARK    8  A    between atoms: _17  and  _18
REMARK    9  A    between atoms: _17  and  _20
REMARK   10  A    between atoms: _20  and  _21
REMARK   11  A    between atoms: _23  and  _25
REMARK   12  A    between atoms: _25  and  _26
REMARK   13  A    between atoms: _25  and  _28
REMARK   14  A    between atoms: _28  and  _29
REMARK   15  A    between atoms: _32  and  _34
REMARK   16  A    between atoms: _34  and  _35
REMARK   17  A    between atoms: _34  and  _37
REMARK   18  A    between atoms: _37  and  _38
REMARK   19  A    between atoms: _43  and  _45
REMARK   20  A    between atoms: _45  and  _46
REMARK   21  A    between atoms: _49  and  _51
REMARK   22  A    between atoms: _51  and  _52
REMARK   23  A    between atoms: _51  and  _54
REMARK   24  A    between atoms: _54  and  _55
REMARK   25  A    between atoms: _58  and  _60
REMARK   26  A    between atoms: _60  and  _61
REMARK   27  A    between atoms: _60  and  _63
REMARK   28  A    between atoms: _63  and  _64
REMARK   29  A    between atoms: _67  and  _69
REMARK   30  A    between atoms: _69  and  _70
REMARK   31  A    between atoms: _69  and  _72
REMARK   32  A    between atoms: _72  and  _73
REMARK   33  A    between atoms: _76  and  _78
REMARK   34  A    between atoms: _78  and  _79
REMARK   35  A    between atoms: _82  and  _84
REMARK   36  A    between atoms: _84  and  _85
REMARK   37  A    between atoms: _84  and  _87
REMARK   38  A    between atoms: _87  and  _88
REMARK   39  A    between atoms: _88  and  _89
REMARK   40  A    between atoms: _94  and  _96
REMARK   41  A    between atoms: _96  and  _97
REMARK   42  A    between atoms: _96  and  _99
REMARK   43  A    between atoms: _99  and  _100
REMARK   44  A    between atoms: _103  and  _105
REMARK   45  A    between atoms: _105  and  _106
REMARK   46  A    between atoms: _109  and  _111
REMARK   47  A    between atoms: _111  and  _112
REMARK   48  A    between atoms: _114  and  _116
REMARK   49  A    between atoms: _116  and  _117
REMARK   50  A    between atoms: _116  and  _119
REMARK   51  A    between atoms: _119  and  _120
REMARK   52  A    between atoms: _120  and  _121
REMARK   53  A    between atoms: _121  and  _122
REMARK   54  A    between atoms: _131  and  _133
REMARK   55  A    between atoms: _133  and  _134
REMARK   56  A    between atoms: _136  and  _138
REMARK   57  A    between atoms: _138  and  _139
REMARK   58  A    between atoms: _138  and  _141
REMARK   59  A    between atoms: _141  and  _142
REMARK   60  A    between atoms: _142  and  _143
REMARK   61  A    between atoms: _143  and  _144
REMARK   62  A    between atoms: _153  and  _155
REMARK   63  A    between atoms: _155  and  _156
REMARK   64  A    between atoms: _155  and  _158
REMARK   65  A    between atoms: _158  and  _159
REMARK   66  A    between atoms: _164  and  _166
REMARK   67  A    between atoms: _166  and  _167
REMARK   68  A    between atoms: _169  and  _171
REMARK   69  A    between atoms: _171  and  _172
REMARK   70  A    between atoms: _171  and  _174
REMARK   71  A    between atoms: _174  and  _175
REMARK   72  A    between atoms: _175  and  _176
REMARK   73  A    between atoms: _176  and  _177
REMARK   74  A    between atoms: _186  and  _188
REMARK   75  A    between atoms: _188  and  _189
REMARK   76  A    between atoms: _191  and  _193
REMARK   77  A    between atoms: _193  and  _194
REMARK   78  A    between atoms: _193  and  _196
REMARK   79  A    between atoms: _196  and  _197
REMARK   80  A    between atoms: _207  and  _209
REMARK   81  A    between atoms: _209  and  _210
REMARK   82  A    between atoms: _213  and  _215
REMARK   83  A    between atoms: _215  and  _216
REMARK   84  A    between atoms: _219  and  _221
REMARK   85  A    between atoms: _221  and  _222
REMARK   86  A    between atoms: _221  and  _224
REMARK   87  A    between atoms: _224  and  _225
REMARK   88  A    between atoms: _228  and  _230
REMARK   89  A    between atoms: _230  and  _231
REMARK   90  A    between atoms: _230  and  _233
REMARK   91  A    between atoms: _233  and  _234
REMARK   92  A    between atoms: _234  and  _235
REMARK   93  A    between atoms: _240  and  _242
REMARK   94  A    between atoms: _242  and  _243
REMARK   95  A    between atoms: _242  and  _245
REMARK   96  A    between atoms: _245  and  _246
REMARK   97  A    between atoms: _249  and  _251
REMARK   98  A    between atoms: _251  and  _252
REMARK   99  A    between atoms: _251  and  _254
REMARK  100  A    between atoms: _254  and  _255
REMARK  101  A    between atoms: _258  and  _260
REMARK  102  A    between atoms: _260  and  _261
REMARK  103  A    between atoms: _260  and  _263
REMARK  104  A    between atoms: _263  and  _264
REMARK  105  A    between atoms: _267  and  _269
REMARK  106  A    between atoms: _269  and  _270
REMARK  107  A    between atoms: _269  and  _272
REMARK  108  A    between atoms: _272  and  _273
REMARK  109  A    between atoms: _275  and  _277
REMARK  110  A    between atoms: _277  and  _278
REMARK  111  A    between atoms: _277  and  _280
REMARK  112  A    between atoms: _283  and  _285
REMARK  113  A    between atoms: _285  and  _286
REMARK  114  A    between atoms: _285  and  _288
REMARK  115  A    between atoms: _288  and  _289
REMARK  116  A    between atoms: _289  and  _290
REMARK  117  A    between atoms: _290  and  _291
REMARK  118  A    between atoms: _291  and  _292
REMARK  119  A    between atoms: _297  and  _298
REMARK  120  A    between atoms: _303  and  _305
REMARK  121  A    between atoms: _305  and  _306
REMARK  122  A    between atoms: _305  and  _308
REMARK  123  A    between atoms: _308  and  _309
REMARK  124  A    between atoms: _314  and  _316
REMARK  125  A    between atoms: _316  and  _317
REMARK  126  A    between atoms: _316  and  _319
REMARK  127  A    between atoms: _319  and  _320
REMARK  128  A    between atoms: _323  and  _325
REMARK  129  A    between atoms: _325  and  _326
REMARK  130  A    between atoms: _325  and  _328
REMARK  131  A    between atoms: _331  and  _333
REMARK  132  A    between atoms: _333  and  _334
REMARK  133  A    between atoms: _336  and  _338
REMARK  134  A    between atoms: _338  and  _339
REMARK  135  A    between atoms: _338  and  _341
REMARK  136  A    between atoms: _341  and  _342
REMARK  137  A    between atoms: _342  and  _343
REMARK  138  A    between atoms: _343  and  _344
REMARK  139  A    between atoms: _344  and  _345
REMARK  140  A    between atoms: _349  and  _351
REMARK  141  A    between atoms: _351  and  _352
REMARK  142  A    between atoms: _351  and  _354
REMARK  143  A    between atoms: _354  and  _355
REMARK  144  A    between atoms: _358  and  _360
REMARK  145  A    between atoms: _360  and  _361
REMARK  146  A    between atoms: _364  and  _366
REMARK  147  A    between atoms: _366  and  _367
REMARK  148  A    between atoms: _369  and  _371
REMARK  149  A    between atoms: _371  and  _372
REMARK  150  A    between atoms: _371  and  _374
REMARK  151  A    between atoms: _374  and  _375
REMARK  152  A    between atoms: _378  and  _380
REMARK  153  A    between atoms: _380  and  _381
REMARK  154  A    between atoms: _380  and  _383
REMARK  155  A    between atoms: _383  and  _384
REMARK  156  A    between atoms: _387  and  _389
REMARK  157  A    between atoms: _389  and  _390
REMARK  158  A    between atoms: _393  and  _395
REMARK  159  A    between atoms: _395  and  _396
REMARK  160  A    between atoms: _395  and  _398
REMARK  161  A    between atoms: _398  and  _399
REMARK  162  A    between atoms: _399  and  _400
REMARK  163  A    between atoms: _403  and  _405
REMARK  164  A    between atoms: _405  and  _406
REMARK  165  A    between atoms: _405  and  _408
REMARK  166  A    between atoms: _411  and  _413
REMARK  167  A    between atoms: _413  and  _414
REMARK  168  A    between atoms: _413  and  _416
REMARK  169  A    between atoms: _416  and  _417
REMARK  170  A    between atoms: _420  and  _422
REMARK  171  A    between atoms: _422  and  _423
REMARK  172  A    between atoms: _425  and  _427
REMARK  173  A    between atoms: _427  and  _428
REMARK  174  A    between atoms: _427  and  _430
REMARK  175  A    between atoms: _433  and  _435
REMARK  176  A    between atoms: _435  and  _436
REMARK  177  A    between atoms: _438  and  _440
REMARK  178  A    between atoms: _440  and  _441
REMARK  179  A    between atoms: _440  and  _443
REMARK  180  A    between atoms: _443  and  _444
REMARK  181  A    between atoms: _447  and  _449
REMARK  182  A    between atoms: _449  and  _450
REMARK  183  A    between atoms: _449  and  _452
REMARK  184  A    between atoms: _452  and  _453
REMARK  185  A    between atoms: _458  and  _460
REMARK  186  A    between atoms: _460  and  _461
REMARK  187  A    between atoms: _460  and  _463
REMARK  188  A    between atoms: _466  and  _468
REMARK  189  A    between atoms: _468  and  _469
REMARK  190  A    between atoms: _468  and  _471
REMARK  191  A    between atoms: _471  and  _472
REMARK  192  A    between atoms: _472  and  _473
REMARK  193  A    between atoms: _478  and  _480
REMARK  194  A    between atoms: _480  and  _481
REMARK  195  A    between atoms: _485  and  _486
REMARK  196  A    between atoms: _491  and  _493
REMARK  197  A    between atoms: _493  and  _494
REMARK  198  A    between atoms: _493  and  _496
REMARK  199  A    between atoms: _496  and  _497
REMARK  200  A    between atoms: _497  and  _498
REMARK  201  A    between atoms: _501  and  _503
REMARK  202  A    between atoms: _503  and  _504
REMARK  203  A    between atoms: _503  and  _506
REMARK  204  A    between atoms: _509  and  _511
REMARK  205  A    between atoms: _511  and  _512
REMARK  206  A    between atoms: _511  and  _514
REMARK  207  A    between atoms: _514  and  _515
REMARK  208  A    between atoms: _519  and  _520
REMARK  209  A    between atoms: _525  and  _527
REMARK  210  A    between atoms: _527  and  _528
REMARK  211  A    between atoms: _527  and  _530
REMARK  212  A    between atoms: _530  and  _531
REMARK  213  A    between atoms: _534  and  _536
REMARK  214  A    between atoms: _536  and  _537
REMARK  215  A    between atoms: _540  and  _542
REMARK  216  A    between atoms: _542  and  _543
REMARK  217  A    between atoms: _542  and  _545
REMARK  218  A    between atoms: _545  and  _546
REMARK  219  A    between atoms: _549  and  _551
REMARK  220  A    between atoms: _551  and  _552
REMARK  221  A    between atoms: _551  and  _554
REMARK  222  A    between atoms: _554  and  _555
REMARK  223  A    between atoms: _557  and  _559
REMARK  224  A    between atoms: _559  and  _560
REMARK  225  A    between atoms: _562  and  _564
REMARK  226  A    between atoms: _564  and  _565
REMARK  227  A    between atoms: _564  and  _567
REMARK  228  A    between atoms: _567  and  _568
REMARK  229  A    between atoms: _571  and  _573
REMARK  230  A    between atoms: _573  and  _574
REMARK  231  A    between atoms: _573  and  _576
REMARK                            x       y       z     vdW  Elec       q    Type
REMARK                         _______ _______ _______ _____ _____    ______ ____
ROOT
ATOM      1  O   HOH     1       1.703   1.867  15.410  0.00  0.00    +0.000 OA
ENDROOT
TORSDOF 0
REMARK  Name = ../refined-set-2016/4xu2/4xu2_pocket.pdb
REMARK  231 active torsions:
REMARK  status: ('A' for Active; 'I' for Inactive)
REMARK    1  A    between atoms: _1  and  _3
REMARK    2  A    between atoms: _3  and  _4
REMARK    3  A    between atoms: _3  and  _6
REMARK    4  A    between atoms: _6  and  _7
REMARK    5  A    between atoms: _10  and  _12
REMARK    6  A    between atoms: _12  and  _13
REMARK    7  A    between atoms: _15  and  _17
REMARK    8  A    between atoms: _17  and  _18
REMARK    9  A    between atoms: _17  and  _20
REMARK   10  A    between atoms: _20  and  _21
REMARK   11  A    between atoms: _23  and  _25
REMARK   12  A    between atoms: _25  and  _26
REMARK   13  A    between atoms: _25  and  _28
REMARK   14  A    between atoms: _28  and  _29
REMARK   15  A    between atoms: _32  and  _34
REMARK   16  A    between atoms: _34  and  _35
REMARK   17  A    between atoms: _34  and  _37
REMARK   18  A    between atoms: _37  and  _38
REMARK   19  A    between atoms: _43  and  _45
REMARK   20  A    between atoms: _45  and  _46
REMARK   21  A    between atoms: _49  and  _51
REMARK   22  A    between atoms: _51  and  _52
REMARK   23  A    between atoms: _51  and  _54
REMARK   24  A    between atoms: _54  and  _55
REMARK   25  A    between atoms: _58  and  _60
REMARK   26  A    between atoms: _60  and  _61
REMARK   27  A    between atoms: _60  and  _63
REMARK   28  A    between atoms: _63  and  _64
REMARK   29  A    between atoms: _67  and  _69
REMARK   30  A    between atoms: _69  and  _70
REMARK   31  A    between atoms: _69  and  _72
REMARK   32  A    between atoms: _72  and  _73
REMARK   33  A    between atoms: _76  and  _78
REMARK   34  A    between atoms: _78  and  _79
REMARK   35  A    between atoms: _82  and  _84
REMARK   36  A    between atoms: _84  and  _85
REMARK   37  A    between atoms: _84  and  _87
REMARK   38  A    between atoms: _87  and  _88
REMARK   39  A    between atoms: _88  and  _89
REMARK   40  A    between atoms: _94  and  _96
REMARK   41  A    between atoms: _96  and  _97
REMARK   42  A    between atoms: _96  and  _99
REMARK   43  A    between atoms: _99  and  _100
REMARK   44  A    between atoms: _103  and  _105
REMARK   45  A    between atoms: _105  and  _106
REMARK   46  A    between atoms: _109  and  _111
REMARK   47  A    between atoms: _111  and  _112
REMARK   48  A    between atoms: _114  and  _116
REMARK   49  A    between atoms: _116  and  _117
REMARK   50  A    between atoms: _116  and  _119
REMARK   51  A    between atoms: _119  and  _120
REMARK   52  A    between atoms: _120  and  _121
REMARK   53  A    between atoms: _121  and  _122
REMARK   54  A    between atoms: _131  and  _133
REMARK   55  A    between atoms: _133  and  _134
REMARK   56  A    between atoms: _136  and  _138
REMARK   57  A    between atoms: _138  and  _139
REMARK   58  A    between atoms: _138  and  _141
REMARK   59  A    between atoms: _141  and  _142
REMARK   60  A    between atoms: _142  and  _143
REMARK   61  A    between atoms: _143  and  _144
REMARK   62  A    between atoms: _153  and  _155
REMARK   63  A    between atoms: _155  and  _156
REMARK   64  A    between atoms: _155  and  _158
REMARK   65  A    between atoms: _158  and  _159
REMARK   66  A    between atoms: _164  and  _166
REMARK   67  A    between atoms: _166  and  _167
REMARK   68  A    between atoms: _169  and  _171
REMARK   69  A    between atoms: _171  and  _172
REMARK   70  A    between atoms: _171  and  _174
REMARK   71  A    between atoms: _174  and  _175
REMARK   72  A    between atoms: _175  and  _176
REMARK   73  A    between atoms: _176  and  _177
REMARK   74  A    between atoms: _186  and  _188
REMARK   75  A    between atoms: _188  and  _189
REMARK   76  A    between atoms: _191  and  _193
REMARK   77  A    between atoms: _193  and  _194
REMARK   78  A    between atoms: _193  and  _196
REMARK   79  A    between atoms: _196  and  _197
REMARK   80  A    between atoms: _207  and  _209
REMARK   81  A    between atoms: _209  and  _210
REMARK   82  A    between atoms: _213  and  _215
REMARK   83  A    between atoms: _215  and  _216
REMARK   84  A    between atoms: _219  and  _221
REMARK   85  A    between atoms: _221  and  _222
REMARK   86  A    between atoms: _221  and  _224
REMARK   87  A    between atoms: _224  and  _225
REMARK   88  A    between atoms: _228  and  _230
REMARK   89  A    between atoms: _230  and  _231
REMARK   90  A    between atoms: _230  and  _233
REMARK   91  A    between atoms: _233  and  _234
REMARK   92  A    between atoms: _234  and  _235
REMARK   93  A    between atoms: _240  and  _242
REMARK   94  A    between atoms: _242  and  _243
REMARK   95  A    between atoms: _242  and  _245
REMARK   96  A    between atoms: _245  and  _246
REMARK   97  A    between atoms: _249  and  _251
REMARK   98  A    between atoms: _251  and  _252
REMARK   99  A    between atoms: _251  and  _254
REMARK  100  A    between atoms: _254  and  _255
REMARK  101  A    between atoms: _258  and  _260
REMARK  102  A    between atoms: _260  and  _261
REMARK  103  A    between atoms: _260  and  _263
REMARK  104  A    between atoms: _263  and  _264
REMARK  105  A    between atoms: _267  and  _269
REMARK  106  A    between atoms: _269  and  _270
REMARK  107  A    between atoms: _269  and  _272
REMARK  108  A    between atoms: _272  and  _273
REMARK  109  A    between atoms: _275  and  _277
REMARK  110  A    between atoms: _277  and  _278
REMARK  111  A    between atoms: _277  and  _280
REMARK  112  A    between atoms: _283  and  _285
REMARK  113  A    between atoms: _285  and  _286
REMARK  114  A    between atoms: _285  and  _288
REMARK  115  A    between atoms: _288  and  _289
REMARK  116  A    between atoms: _289  and  _290
REMARK  117  A    between atoms: _290  and  _291
REMARK  118  A    between atoms: _291  and  _292
REMARK  119  A    between atoms: _297  and  _298
REMARK  120  A    between atoms: _303  and  _305
REMARK  121  A    between atoms: _305  and  _306
REMARK  122  A    between atoms: _305  and  _308
REMARK  123  A    between atoms: _308  and  _309
REMARK  124  A    between atoms: _314  and  _316
REMARK  125  A    between atoms: _316  and  _317
REMARK  126  A    between atoms: _316  and  _319
REMARK  127  A    between atoms: _319  and  _320
REMARK  128  A    between atoms: _323  and  _325
REMARK  129  A    between atoms: _325  and  _326
REMARK  130  A    between atoms: _325  and  _328
REMARK  131  A    between atoms: _331  and  _333
REMARK  132  A    between atoms: _333  and  _334
REMARK  133  A    between atoms: _336  and  _338
REMARK  134  A    between atoms: _338  and  _339
REMARK  135  A    between atoms: _338  and  _341
REMARK  136  A    between atoms: _341  and  _342
REMARK  137  A    between atoms: _342  and  _343
REMARK  138  A    between atoms: _343  and  _344
REMARK  139  A    between atoms: _344  and  _345
REMARK  140  A    between atoms: _349  and  _351
REMARK  141  A    between atoms: _351  and  _352
REMARK  142  A    between atoms: _351  and  _354
REMARK  143  A    between atoms: _354  and  _355
REMARK  144  A    between atoms: _358  and  _360
REMARK  145  A    between atoms: _360  and  _361
REMARK  146  A    between atoms: _364  and  _366
REMARK  147  A    between atoms: _366  and  _367
REMARK  148  A    between atoms: _369  and  _371
REMARK  149  A    between atoms: _371  and  _372
REMARK  150  A    between atoms: _371  and  _374
REMARK  151  A    between atoms: _374  and  _375
REMARK  152  A    between atoms: _378  and  _380
REMARK  153  A    between atoms: _380  and  _381
REMARK  154  A    between atoms: _380  and  _383
REMARK  155  A    between atoms: _383  and  _384
REMARK  156  A    between atoms: _387  and  _389
REMARK  157  A    between atoms: _389  and  _390
REMARK  158  A    between atoms: _393  and  _395
REMARK  159  A    between atoms: _395  and  _396
REMARK  160  A    between atoms: _395  and  _398
REMARK  161  A    between atoms: _398  and  _399
REMARK  162  A    between atoms: _399  and  _400
REMARK  163  A    between atoms: _403  and  _405
REMARK  164  A    between atoms: _405  and  _406
REMARK  165  A    between atoms: _405  and  _408
REMARK  166  A    between atoms: _411  and  _413
REMARK  167  A    between atoms: _413  and  _414
REMARK  168  A    between atoms: _413  and  _416
REMARK  169  A    between atoms: _416  and  _417
REMARK  170  A    between atoms: _420  and  _422
REMARK  171  A    between atoms: _422  and  _423
REMARK  172  A    between atoms: _425  and  _427
REMARK  173  A    between atoms: _427  and  _428
REMARK  174  A    between atoms: _427  and  _430
REMARK  175  A    between atoms: _433  and  _435
REMARK  176  A    between atoms: _435  and  _436
REMARK  177  A    between atoms: _438  and  _440
REMARK  178  A    between atoms: _440  and  _441
REMARK  179  A    between atoms: _440  and  _443
REMARK  180  A    between atoms: _443  and  _444
REMARK  181  A    between atoms: _447  and  _449
REMARK  182  A    between atoms: _449  and  _450
REMARK  183  A    between atoms: _449  and  _452
REMARK  184  A    between atoms: _452  and  _453
REMARK  185  A    between atoms: _458  and  _460
REMARK  186  A    between atoms: _460  and  _461
REMARK  187  A    between atoms: _460  and  _463
REMARK  188  A    between atoms: _466  and  _468
REMARK  189  A    between atoms: _468  and  _469
REMARK  190  A    between atoms: _468  and  _471
REMARK  191  A    between atoms: _471  and  _472
REMARK  192  A    between atoms: _472  and  _473
REMARK  193  A    between atoms: _478  and  _480
REMARK  194  A    between atoms: _480  and  _481
REMARK  195  A    between atoms: _485  and  _486
REMARK  196  A    between atoms: _491  and  _493
REMARK  197  A    between atoms: _493  and  _494
REMARK  198  A    between atoms: _493  and  _496
REMARK  199  A    between atoms: _496  and  _497
REMARK  200  A    between atoms: _497  and  _498
REMARK  201  A    between atoms: _501  and  _503
REMARK  202  A    between atoms: _503  and  _504
REMARK  203  A    between atoms: _503  and  _506
REMARK  204  A    between atoms: _509  and  _511
REMARK  205  A    between atoms: _511  and  _512
REMARK  206  A    between atoms: _511  and  _514
REMARK  207  A    between atoms: _514  and  _515
REMARK  208  A    between atoms: _519  and  _520
REMARK  209  A    between atoms: _525  and  _527
REMARK  210  A    between atoms: _527  and  _528
REMARK  211  A    between atoms: _527  and  _530
REMARK  212  A    between atoms: _530  and  _531
REMARK  213  A    between atoms: _534  and  _536
REMARK  214  A    between atoms: _536  and  _537
REMARK  215  A    between atoms: _540  and  _542
REMARK  216  A    between atoms: _542  and  _543
REMARK  217  A    between atoms: _542  and  _545
REMARK  218  A    between atoms: _545  and  _546
REMARK  219  A    between atoms: _549  and  _551
REMARK  220  A    between atoms: _551  and  _552
REMARK  221  A    between atoms: _551  and  _554
REMARK  222  A    between atoms: _554  and  _555
REMARK  223  A    between atoms: _557  and  _559
REMARK  224  A    between atoms: _559  and  _560
REMARK  225  A    between atoms: _562  and  _564
REMARK  226  A    between atoms: _564  and  _565
REMARK  227  A    between atoms: _564  and  _567
REMARK  228  A    between atoms: _567  and  _568
REMARK  229  A    between atoms: _571  and  _573
REMARK  230  A    between atoms: _573  and  _574
REMARK  231  A    between atoms: _573  and  _576
REMARK                            x       y       z     vdW  Elec       q    Type
REMARK                         _______ _______ _______ _____ _____    ______ ____
ROOT
ATOM      1  O   HOH     1      -5.381 -12.690   5.858  0.00  0.00    +0.000 OA
ENDROOT
TORSDOF 0
REMARK  Name = ../refined-set-2016/4xu2/4xu2_pocket.pdb
REMARK  231 active torsions:
REMARK  status: ('A' for Active; 'I' for Inactive)
REMARK    1  A    between atoms: _1  and  _3
REMARK    2  A    between atoms: _3  and  _4
REMARK    3  A    between atoms: _3  and  _6
REMARK    4  A    between atoms: _6  and  _7
REMARK    5  A    between atoms: _10  and  _12
REMARK    6  A    between atoms: _12  and  _13
REMARK    7  A    between atoms: _15  and  _17
REMARK    8  A    between atoms: _17  and  _18
REMARK    9  A    between atoms: _17  and  _20
REMARK   10  A    between atoms: _20  and  _21
REMARK   11  A    between atoms: _23  and  _25
REMARK   12  A    between atoms: _25  and  _26
REMARK   13  A    between atoms: _25  and  _28
REMARK   14  A    between atoms: _28  and  _29
REMARK   15  A    between atoms: _32  and  _34
REMARK   16  A    between atoms: _34  and  _35
REMARK   17  A    between atoms: _34  and  _37
REMARK   18  A    between atoms: _37  and  _38
REMARK   19  A    between atoms: _43  and  _45
REMARK   20  A    between atoms: _45  and  _46
REMARK   21  A    between atoms: _49  and  _51
REMARK   22  A    between atoms: _51  and  _52
REMARK   23  A    between atoms: _51  and  _54
REMARK   24  A    between atoms: _54  and  _55
REMARK   25  A    between atoms: _58  and  _60
REMARK   26  A    between atoms: _60  and  _61
REMARK   27  A    between atoms: _60  and  _63
REMARK   28  A    between atoms: _63  and  _64
REMARK   29  A    between atoms: _67  and  _69
REMARK   30  A    between atoms: _69  and  _70
REMARK   31  A    between atoms: _69  and  _72
REMARK   32  A    between atoms: _72  and  _73
REMARK   33  A    between atoms: _76  and  _78
REMARK   34  A    between atoms: _78  and  _79
REMARK   35  A    between atoms: _82  and  _84
REMARK   36  A    between atoms: _84  and  _85
REMARK   37  A    between atoms: _84  and  _87
REMARK   38  A    between atoms: _87  and  _88
REMARK   39  A    between atoms: _88  and  _89
REMARK   40  A    between atoms: _94  and  _96
REMARK   41  A    between atoms: _96  and  _97
REMARK   42  A    between atoms: _96  and  _99
REMARK   43  A    between atoms: _99  and  _100
REMARK   44  A    between atoms: _103  and  _105
REMARK   45  A    between atoms: _105  and  _106
REMARK   46  A    between atoms: _109  and  _111
REMARK   47  A    between atoms: _111  and  _112
REMARK   48  A    between atoms: _114  and  _116
REMARK   49  A    between atoms: _116  and  _117
REMARK   50  A    between atoms: _116  and  _119
REMARK   51  A    between atoms: _119  and  _120
REMARK   52  A    between atoms: _120  and  _121
REMARK   53  A    between atoms: _121  and  _122
REMARK   54  A    between atoms: _131  and  _133
REMARK   55  A    between atoms: _133  and  _134
REMARK   56  A    between atoms: _136  and  _138
REMARK   57  A    between atoms: _138  and  _139
REMARK   58  A    between atoms: _138  and  _141
REMARK   59  A    between atoms: _141  and  _142
REMARK   60  A    between atoms: _142  and  _143
REMARK   61  A    between atoms: _143  and  _144
REMARK   62  A    between atoms: _153  and  _155
REMARK   63  A    between atoms: _155  and  _156
REMARK   64  A    between atoms: _155  and  _158
REMARK   65  A    between atoms: _158  and  _159
REMARK   66  A    between atoms: _164  and  _166
REMARK   67  A    between atoms: _166  and  _167
REMARK   68  A    between atoms: _169  and  _171
REMARK   69  A    between atoms: _171  and  _172
REMARK   70  A    between atoms: _171  and  _174
REMARK   71  A    between atoms: _174  and  _175
REMARK   72  A    between atoms: _175  and  _176
REMARK   73  A    between atoms: _176  and  _177
REMARK   74  A    between atoms: _186  and  _188
REMARK   75  A    between atoms: _188  and  _189
REMARK   76  A    between atoms: _191  and  _193
REMARK   77  A    between atoms: _193  and  _194
REMARK   78  A    between atoms: _193  and  _196
REMARK   79  A    between atoms: _196  and  _197
REMARK   80  A    between atoms: _207  and  _209
REMARK   81  A    between atoms: _209  and  _210
REMARK   82  A    between atoms: _213  and  _215
REMARK   83  A    between atoms: _215  and  _216
REMARK   84  A    between atoms: _219  and  _221
REMARK   85  A    between atoms: _221  and  _222
REMARK   86  A    between atoms: _221  and  _224
REMARK   87  A    between atoms: _224  and  _225
REMARK   88  A    between atoms: _228  and  _230
REMARK   89  A    between atoms: _230  and  _231
REMARK   90  A    between atoms: _230  and  _233
REMARK   91  A    between atoms: _233  and  _234
REMARK   92  A    between atoms: _234  and  _235
REMARK   93  A    between atoms: _240  and  _242
REMARK   94  A    between atoms: _242  and  _243
REMARK   95  A    between atoms: _242  and  _245
REMARK   96  A    between atoms: _245  and  _246
REMARK   97  A    between atoms: _249  and  _251
REMARK   98  A    between atoms: _251  and  _252
REMARK   99  A    between atoms: _251  and  _254
REMARK  100  A    between atoms: _254  and  _255
REMARK  101  A    between atoms: _258  and  _260
REMARK  102  A    between atoms: _260  and  _261
REMARK  103  A    between atoms: _260  and  _263
REMARK  104  A    between atoms: _263  and  _264
REMARK  105  A    between atoms: _267  and  _269
REMARK  106  A    between atoms: _269  and  _270
REMARK  107  A    between atoms: _269  and  _272
REMARK  108  A    between atoms: _272  and  _273
REMARK  109  A    between atoms: _275  and  _277
REMARK  110  A    between atoms: _277  and  _278
REMARK  111  A    between atoms: _277  and  _280
REMARK  112  A    between atoms: _283  and  _285
REMARK  113  A    between atoms: _285  and  _286
REMARK  114  A    between atoms: _285  and  _288
REMARK  115  A    between atoms: _288  and  _289
REMARK  116  A    between atoms: _289  and  _290
REMARK  117  A    between atoms: _290  and  _291
REMARK  118  A    between atoms: _291  and  _292
REMARK  119  A    between atoms: _297  and  _298
REMARK  120  A    between atoms: _303  and  _305
REMARK  121  A    between atoms: _305  and  _306
REMARK  122  A    between atoms: _305  and  _308
REMARK  123  A    between atoms: _308  and  _309
REMARK  124  A    between atoms: _314  and  _316
REMARK  125  A    between atoms: _316  and  _317
REMARK  126  A    between atoms: _316  and  _319
REMARK  127  A    between atoms: _319  and  _320
REMARK  128  A    between atoms: _323  and  _325
REMARK  129  A    between atoms: _325  and  _326
REMARK  130  A    between atoms: _325  and  _328
REMARK  131  A    between atoms: _331  and  _333
REMARK  132  A    between atoms: _333  and  _334
REMARK  133  A    between atoms: _336  and  _338
REMARK  134  A    between atoms: _338  and  _339
REMARK  135  A    between atoms: _338  and  _341
REMARK  136  A    between atoms: _341  and  _342
REMARK  137  A    between atoms: _342  and  _343
REMARK  138  A    between atoms: _343  and  _344
REMARK  139  A    between atoms: _344  and  _345
REMARK  140  A    between atoms: _349  and  _351
REMARK  141  A    between atoms: _351  and  _352
REMARK  142  A    between atoms: _351  and  _354
REMARK  143  A    between atoms: _354  and  _355
REMARK  144  A    between atoms: _358  and  _360
REMARK  145  A    between atoms: _360  and  _361
REMARK  146  A    between atoms: _364  and  _366
REMARK  147  A    between atoms: _366  and  _367
REMARK  148  A    between atoms: _369  and  _371
REMARK  149  A    between atoms: _371  and  _372
REMARK  150  A    between atoms: _371  and  _374
REMARK  151  A    between atoms: _374  and  _375
REMARK  152  A    between atoms: _378  and  _380
REMARK  153  A    between atoms: _380  and  _381
REMARK  154  A    between atoms: _380  and  _383
REMARK  155  A    between atoms: _383  and  _384
REMARK  156  A    between atoms: _387  and  _389
REMARK  157  A    between atoms: _389  and  _390
REMARK  158  A    between atoms: _393  and  _395
REMARK  159  A    between atoms: _395  and  _396
REMARK  160  A    between atoms: _395  and  _398
REMARK  161  A    between atoms: _398  and  _399
REMARK  162  A    between atoms: _399  and  _400
REMARK  163  A    between atoms: _403  and  _405
REMARK  164  A    between atoms: _405  and  _406
REMARK  165  A    between atoms: _405  and  _408
REMARK  166  A    between atoms: _411  and  _413
REMARK  167  A    between atoms: _413  and  _414
REMARK  168  A    between atoms: _413  and  _416
REMARK  169  A    between atoms: _416  and  _417
REMARK  170  A    between atoms: _420  and  _422
REMARK  171  A    between atoms: _422  and  _423
REMARK  172  A    between atoms: _425  and  _427
REMARK  173  A    between atoms: _427  and  _428
REMARK  174  A    between atoms: _427  and  _430
REMARK  175  A    between atoms: _433  and  _435
REMARK  176  A    between atoms: _435  and  _436
REMARK  177  A    between atoms: _438  and  _440
REMARK  178  A    between atoms: _440  and  _441
REMARK  179  A    between atoms: _440  and  _443
REMARK  180  A    between atoms: _443  and  _444
REMARK  181  A    between atoms: _447  and  _449
REMARK  182  A    between atoms: _449  and  _450
REMARK  183  A    between atoms: _449  and  _452
REMARK  184  A    between atoms: _452  and  _453
REMARK  185  A    between atoms: _458  and  _460
REMARK  186  A    between atoms: _460  and  _461
REMARK  187  A    between atoms: _460  and  _463
REMARK  188  A    between atoms: _466  and  _468
REMARK  189  A    between atoms: _468  and  _469
REMARK  190  A    between atoms: _468  and  _471
REMARK  191  A    between atoms: _471  and  _472
REMARK  192  A    between atoms: _472  and  _473
REMARK  193  A    between atoms: _478  and  _480
REMARK  194  A    between atoms: _480  and  _481
REMARK  195  A    between atoms: _485  and  _486
REMARK  196  A    between atoms: _491  and  _493
REMARK  197  A    between atoms: _493  and  _494
REMARK  198  A    between atoms: _493  and  _496
REMARK  199  A    between atoms: _496  and  _497
REMARK  200  A    between atoms: _497  and  _498
REMARK  201  A    between atoms: _501  and  _503
REMARK  202  A    between atoms: _503  and  _504
REMARK  203  A    between atoms: _503  and  _506
REMARK  204  A    between atoms: _509  and  _511
REMARK  205  A    between atoms: _511  and  _512
REMARK  206  A    between atoms: _511  and  _514
REMARK  207  A    between atoms: _514  and  _515
REMARK  208  A    between atoms: _519  and  _520
REMARK  209  A    between atoms: _525  and  _527
REMARK  210  A    between atoms: _527  and  _528
REMARK  211  A    between atoms: _527  and  _530
REMARK  212  A    between atoms: _530  and  _531
REMARK  213  A    between atoms: _534  and  _536
REMARK  214  A    between atoms: _536  and  _537
REMARK  215  A    between atoms: _540  and  _542
REMARK  216  A    between atoms: _542  and  _543
REMARK  217  A    between atoms: _542  and  _545
REMARK  218  A    between atoms: _545  and  _546
REMARK  219  A    between atoms: _549  and  _551
REMARK  220  A    between atoms: _551  and  _552
REMARK  221  A    between atoms: _551  and  _554
REMARK  222  A    between atoms: _554  and  _555
REMARK  223  A    between atoms: _557  and  _559
REMARK  224  A    between atoms: _559  and  _560
REMARK  225  A    between atoms: _562  and  _564
REMARK  226  A    between atoms: _564  and  _565
REMARK  227  A    between atoms: _564  and  _567
REMARK  228  A    between atoms: _567  and  _568
REMARK  229  A    between atoms: _571  and  _573
REMARK  230  A    between atoms: _573  and  _574
REMARK  231  A    between atoms: _573  and  _576
REMARK                            x       y       z     vdW  Elec       q    Type
REMARK                         _______ _______ _______ _____ _____    ______ ____
ROOT
ATOM      1  O   HOH     1      -8.468  -1.663   1.155  0.00  0.00    +0.000 OA
ENDROOT
TORSDOF 0
REMARK  Name = ../refined-set-2016/4xu2/4xu2_pocket.pdb
REMARK  231 active torsions:
REMARK  status: ('A' for Active; 'I' for Inactive)
REMARK    1  A    between atoms: _1  and  _3
REMARK    2  A    between atoms: _3  and  _4
REMARK    3  A    between atoms: _3  and  _6
REMARK    4  A    between atoms: _6  and  _7
REMARK    5  A    between atoms: _10  and  _12
REMARK    6  A    between atoms: _12  and  _13
REMARK    7  A    between atoms: _15  and  _17
REMARK    8  A    between atoms: _17  and  _18
REMARK    9  A    between atoms: _17  and  _20
REMARK   10  A    between atoms: _20  and  _21
REMARK   11  A    between atoms: _23  and  _25
REMARK   12  A    between atoms: _25  and  _26
REMARK   13  A    between atoms: _25  and  _28
REMARK   14  A    between atoms: _28  and  _29
REMARK   15  A    between atoms: _32  and  _34
REMARK   16  A    between atoms: _34  and  _35
REMARK   17  A    between atoms: _34  and  _37
REMARK   18  A    between atoms: _37  and  _38
REMARK   19  A    between atoms: _43  and  _45
REMARK   20  A    between atoms: _45  and  _46
REMARK   21  A    between atoms: _49  and  _51
REMARK   22  A    between atoms: _51  and  _52
REMARK   23  A    between atoms: _51  and  _54
REMARK   24  A    between atoms: _54  and  _55
REMARK   25  A    between atoms: _58  and  _60
REMARK   26  A    between atoms: _60  and  _61
REMARK   27  A    between atoms: _60  and  _63
REMARK   28  A    between atoms: _63  and  _64
REMARK   29  A    between atoms: _67  and  _69
REMARK   30  A    between atoms: _69  and  _70
REMARK   31  A    between atoms: _69  and  _72
REMARK   32  A    between atoms: _72  and  _73
REMARK   33  A    between atoms: _76  and  _78
REMARK   34  A    between atoms: _78  and  _79
REMARK   35  A    between atoms: _82  and  _84
REMARK   36  A    between atoms: _84  and  _85
REMARK   37  A    between atoms: _84  and  _87
REMARK   38  A    between atoms: _87  and  _88
REMARK   39  A    between atoms: _88  and  _89
REMARK   40  A    between atoms: _94  and  _96
REMARK   41  A    between atoms: _96  and  _97
REMARK   42  A    between atoms: _96  and  _99
REMARK   43  A    between atoms: _99  and  _100
REMARK   44  A    between atoms: _103  and  _105
REMARK   45  A    between atoms: _105  and  _106
REMARK   46  A    between atoms: _109  and  _111
REMARK   47  A    between atoms: _111  and  _112
REMARK   48  A    between atoms: _114  and  _116
REMARK   49  A    between atoms: _116  and  _117
REMARK   50  A    between atoms: _116  and  _119
REMARK   51  A    between atoms: _119  and  _120
REMARK   52  A    between atoms: _120  and  _121
REMARK   53  A    between atoms: _121  and  _122
REMARK   54  A    between atoms: _131  and  _133
REMARK   55  A    between atoms: _133  and  _134
REMARK   56  A    between atoms: _136  and  _138
REMARK   57  A    between atoms: _138  and  _139
REMARK   58  A    between atoms: _138  and  _141
REMARK   59  A    between atoms: _141  and  _142
REMARK   60  A    between atoms: _142  and  _143
REMARK   61  A    between atoms: _143  and  _144
REMARK   62  A    between atoms: _153  and  _155
REMARK   63  A    between atoms: _155  and  _156
REMARK   64  A    between atoms: _155  and  _158
REMARK   65  A    between atoms: _158  and  _159
REMARK   66  A    between atoms: _164  and  _166
REMARK   67  A    between atoms: _166  and  _167
REMARK   68  A    between atoms: _169  and  _171
REMARK   69  A    between atoms: _171  and  _172
REMARK   70  A    between atoms: _171  and  _174
REMARK   71  A    between atoms: _174  and  _175
REMARK   72  A    between atoms: _175  and  _176
REMARK   73  A    between atoms: _176  and  _177
REMARK   74  A    between atoms: _186  and  _188
REMARK   75  A    between atoms: _188  and  _189
REMARK   76  A    between atoms: _191  and  _193
REMARK   77  A    between atoms: _193  and  _194
REMARK   78  A    between atoms: _193  and  _196
REMARK   79  A    between atoms: _196  and  _197
REMARK   80  A    between atoms: _207  and  _209
REMARK   81  A    between atoms: _209  and  _210
REMARK   82  A    between atoms: _213  and  _215
REMARK   83  A    between atoms: _215  and  _216
REMARK   84  A    between atoms: _219  and  _221
REMARK   85  A    between atoms: _221  and  _222
REMARK   86  A    between atoms: _221  and  _224
REMARK   87  A    between atoms: _224  and  _225
REMARK   88  A    between atoms: _228  and  _230
REMARK   89  A    between atoms: _230  and  _231
REMARK   90  A    between atoms: _230  and  _233
REMARK   91  A    between atoms: _233  and  _234
REMARK   92  A    between atoms: _234  and  _235
REMARK   93  A    between atoms: _240  and  _242
REMARK   94  A    between atoms: _242  and  _243
REMARK   95  A    between atoms: _242  and  _245
REMARK   96  A    between atoms: _245  and  _246
REMARK   97  A    between atoms: _249  and  _251
REMARK   98  A    between atoms: _251  and  _252
REMARK   99  A    between atoms: _251  and  _254
REMARK  100  A    between atoms: _254  and  _255
REMARK  101  A    between atoms: _258  and  _260
REMARK  102  A    between atoms: _260  and  _261
REMARK  103  A    between atoms: _260  and  _263
REMARK  104  A    between atoms: _263  and  _264
REMARK  105  A    between atoms: _267  and  _269
REMARK  106  A    between atoms: _269  and  _270
REMARK  107  A    between atoms: _269  and  _272
REMARK  108  A    between atoms: _272  and  _273
REMARK  109  A    between atoms: _275  and  _277
REMARK  110  A    between atoms: _277  and  _278
REMARK  111  A    between atoms: _277  and  _280
REMARK  112  A    between atoms: _283  and  _285
REMARK  113  A    between atoms: _285  and  _286
REMARK  114  A    between atoms: _285  and  _288
REMARK  115  A    between atoms: _288  and  _289
REMARK  116  A    between atoms: _289  and  _290
REMARK  117  A    between atoms: _290  and  _291
REMARK  118  A    between atoms: _291  and  _292
REMARK  119  A    between atoms: _297  and  _298
REMARK  120  A    between atoms: _303  and  _305
REMARK  121  A    between atoms: _305  and  _306
REMARK  122  A    between atoms: _305  and  _308
REMARK  123  A    between atoms: _308  and  _309
REMARK  124  A    between atoms: _314  and  _316
REMARK  125  A    between atoms: _316  and  _317
REMARK  126  A    between atoms: _316  and  _319
REMARK  127  A    between atoms: _319  and  _320
REMARK  128  A    between atoms: _323  and  _325
REMARK  129  A    between atoms: _325  and  _326
REMARK  130  A    between atoms: _325  and  _328
REMARK  131  A    between atoms: _331  and  _333
REMARK  132  A    between atoms: _333  and  _334
REMARK  133  A    between atoms: _336  and  _338
REMARK  134  A    between atoms: _338  and  _339
REMARK  135  A    between atoms: _338  and  _341
REMARK  136  A    between atoms: _341  and  _342
REMARK  137  A    between atoms: _342  and  _343
REMARK  138  A    between atoms: _343  and  _344
REMARK  139  A    between atoms: _344  and  _345
REMARK  140  A    between atoms: _349  and  _351
REMARK  141  A    between atoms: _351  and  _352
REMARK  142  A    between atoms: _351  and  _354
REMARK  143  A    between atoms: _354  and  _355
REMARK  144  A    between atoms: _358  and  _360
REMARK  145  A    between atoms: _360  and  _361
REMARK  146  A    between atoms: _364  and  _366
REMARK  147  A    between atoms: _366  and  _367
REMARK  148  A    between atoms: _369  and  _371
REMARK  149  A    between atoms: _371  and  _372
REMARK  150  A    between atoms: _371  and  _374
REMARK  151  A    between atoms: _374  and  _375
REMARK  152  A    between atoms: _378  and  _380
REMARK  153  A    between atoms: _380  and  _381
REMARK  154  A    between atoms: _380  and  _383
REMARK  155  A    between atoms: _383  and  _384
REMARK  156  A    between atoms: _387  and  _389
REMARK  157  A    between atoms: _389  and  _390
REMARK  158  A    between atoms: _393  and  _395
REMARK  159  A    between atoms: _395  and  _396
REMARK  160  A    between atoms: _395  and  _398
REMARK  161  A    between atoms: _398  and  _399
REMARK  162  A    between atoms: _399  and  _400
REMARK  163  A    between atoms: _403  and  _405
REMARK  164  A    between atoms: _405  and  _406
REMARK  165  A    between atoms: _405  and  _408
REMARK  166  A    between atoms: _411  and  _413
REMARK  167  A    between atoms: _413  and  _414
REMARK  168  A    between atoms: _413  and  _416
REMARK  169  A    between atoms: _416  and  _417
REMARK  170  A    between atoms: _420  and  _422
REMARK  171  A    between atoms: _422  and  _423
REMARK  172  A    between atoms: _425  and  _427
REMARK  173  A    between atoms: _427  and  _428
REMARK  174  A    between atoms: _427  and  _430
REMARK  175  A    between atoms: _433  and  _435
REMARK  176  A    between atoms: _435  and  _436
REMARK  177  A    between atoms: _438  and  _440
REMARK  178  A    between atoms: _440  and  _441
REMARK  179  A    between atoms: _440  and  _443
REMARK  180  A    between atoms: _443  and  _444
REMARK  181  A    between atoms: _447  and  _449
REMARK  182  A    between atoms: _449  and  _450
REMARK  183  A    between atoms: _449  and  _452
REMARK  184  A    between atoms: _452  and  _453
REMARK  185  A    between atoms: _458  and  _460
REMARK  186  A    between atoms: _460  and  _461
REMARK  187  A    between atoms: _460  and  _463
REMARK  188  A    between atoms: _466  and  _468
REMARK  189  A    between atoms: _468  and  _469
REMARK  190  A    between atoms: _468  and  _471
REMARK  191  A    between atoms: _471  and  _472
REMARK  192  A    between atoms: _472  and  _473
REMARK  193  A    between atoms: _478  and  _480
REMARK  194  A    between atoms: _480  and  _481
REMARK  195  A    between atoms: _485  and  _486
REMARK  196  A    between atoms: _491  and  _493
REMARK  197  A    between atoms: _493  and  _494
REMARK  198  A    between atoms: _493  and  _496
REMARK  199  A    between atoms: _496  and  _497
REMARK  200  A    between atoms: _497  and  _498
REMARK  201  A    between atoms: _501  and  _503
REMARK  202  A    between atoms: _503  and  _504
REMARK  203  A    between atoms: _503  and  _506
REMARK  204  A    between atoms: _509  and  _511
REMARK  205  A    between atoms: _511  and  _512
REMARK  206  A    between atoms: _511  and  _514
REMARK  207  A    between atoms: _514  and  _515
REMARK  208  A    between atoms: _519  and  _520
REMARK  209  A    between atoms: _525  and  _527
REMARK  210  A    between atoms: _527  and  _528
REMARK  211  A    between atoms: _527  and  _530
REMARK  212  A    between atoms: _530  and  _531
REMARK  213  A    between atoms: _534  and  _536
REMARK  214  A    between atoms: _536  and  _537
REMARK  215  A    between atoms: _540  and  _542
REMARK  216  A    between atoms: _542  and  _543
REMARK  217  A    between atoms: _542  and  _545
REMARK  218  A    between atoms: _545  and  _546
REMARK  219  A    between atoms: _549  and  _551
REMARK  220  A    between atoms: _551  and  _552
REMARK  221  A    between atoms: _551  and  _554
REMARK  222  A    between atoms: _554  and  _555
REMARK  223  A    between atoms: _557  and  _559
REMARK  224  A    between atoms: _559  and  _560
REMARK  225  A    between atoms: _562  and  _564
REMARK  226  A    between atoms: _564  and  _565
REMARK  227  A    between atoms: _564  and  _567
REMARK  228  A    between atoms: _567  and  _568
REMARK  229  A    between atoms: _571  and  _573
REMARK  230  A    between atoms: _573  and  _574
REMARK  231  A    between atoms: _573  and  _576
REMARK                            x       y       z     vdW  Elec       q    Type
REMARK                         _______ _______ _______ _____ _____    ______ ____
ROOT
ATOM      1  O   HOH     1      -4.840  -7.064   1.907  0.00  0.00    +0.000 OA
ENDROOT
TORSDOF 0
REMARK  Name = ../refined-set-2016/4xu2/4xu2_pocket.pdb
REMARK  231 active torsions:
REMARK  status: ('A' for Active; 'I' for Inactive)
REMARK    1  A    between atoms: _1  and  _3
REMARK    2  A    between atoms: _3  and  _4
REMARK    3  A    between atoms: _3  and  _6
REMARK    4  A    between atoms: _6  and  _7
REMARK    5  A    between atoms: _10  and  _12
REMARK    6  A    between atoms: _12  and  _13
REMARK    7  A    between atoms: _15  and  _17
REMARK    8  A    between atoms: _17  and  _18
REMARK    9  A    between atoms: _17  and  _20
REMARK   10  A    between atoms: _20  and  _21
REMARK   11  A    between atoms: _23  and  _25
REMARK   12  A    between atoms: _25  and  _26
REMARK   13  A    between atoms: _25  and  _28
REMARK   14  A    between atoms: _28  and  _29
REMARK   15  A    between atoms: _32  and  _34
REMARK   16  A    between atoms: _34  and  _35
REMARK   17  A    between atoms: _34  and  _37
REMARK   18  A    between atoms: _37  and  _38
REMARK   19  A    between atoms: _43  and  _45
REMARK   20  A    between atoms: _45  and  _46
REMARK   21  A    between atoms: _49  and  _51
REMARK   22  A    between atoms: _51  and  _52
REMARK   23  A    between atoms: _51  and  _54
REMARK   24  A    between atoms: _54  and  _55
REMARK   25  A    between atoms: _58  and  _60
REMARK   26  A    between atoms: _60  and  _61
REMARK   27  A    between atoms: _60  and  _63
REMARK   28  A    between atoms: _63  and  _64
REMARK   29  A    between atoms: _67  and  _69
REMARK   30  A    between atoms: _69  and  _70
REMARK   31  A    between atoms: _69  and  _72
REMARK   32  A    between atoms: _72  and  _73
REMARK   33  A    between atoms: _76  and  _78
REMARK   34  A    between atoms: _78  and  _79
REMARK   35  A    between atoms: _82  and  _84
REMARK   36  A    between atoms: _84  and  _85
REMARK   37  A    between atoms: _84  and  _87
REMARK   38  A    between atoms: _87  and  _88
REMARK   39  A    between atoms: _88  and  _89
REMARK   40  A    between atoms: _94  and  _96
REMARK   41  A    between atoms: _96  and  _97
REMARK   42  A    between atoms: _96  and  _99
REMARK   43  A    between atoms: _99  and  _100
REMARK   44  A    between atoms: _103  and  _105
REMARK   45  A    between atoms: _105  and  _106
REMARK   46  A    between atoms: _109  and  _111
REMARK   47  A    between atoms: _111  and  _112
REMARK   48  A    between atoms: _114  and  _116
REMARK   49  A    between atoms: _116  and  _117
REMARK   50  A    between atoms: _116  and  _119
REMARK   51  A    between atoms: _119  and  _120
REMARK   52  A    between atoms: _120  and  _121
REMARK   53  A    between atoms: _121  and  _122
REMARK   54  A    between atoms: _131  and  _133
REMARK   55  A    between atoms: _133  and  _134
REMARK   56  A    between atoms: _136  and  _138
REMARK   57  A    between atoms: _138  and  _139
REMARK   58  A    between atoms: _138  and  _141
REMARK   59  A    between atoms: _141  and  _142
REMARK   60  A    between atoms: _142  and  _143
REMARK   61  A    between atoms: _143  and  _144
REMARK   62  A    between atoms: _153  and  _155
REMARK   63  A    between atoms: _155  and  _156
REMARK   64  A    between atoms: _155  and  _158
REMARK   65  A    between atoms: _158  and  _159
REMARK   66  A    between atoms: _164  and  _166
REMARK   67  A    between atoms: _166  and  _167
REMARK   68  A    between atoms: _169  and  _171
REMARK   69  A    between atoms: _171  and  _172
REMARK   70  A    between atoms: _171  and  _174
REMARK   71  A    between atoms: _174  and  _175
REMARK   72  A    between atoms: _175  and  _176
REMARK   73  A    between atoms: _176  and  _177
REMARK   74  A    between atoms: _186  and  _188
REMARK   75  A    between atoms: _188  and  _189
REMARK   76  A    between atoms: _191  and  _193
REMARK   77  A    between atoms: _193  and  _194
REMARK   78  A    between atoms: _193  and  _196
REMARK   79  A    between atoms: _196  and  _197
REMARK   80  A    between atoms: _207  and  _209
REMARK   81  A    between atoms: _209  and  _210
REMARK   82  A    between atoms: _213  and  _215
REMARK   83  A    between atoms: _215  and  _216
REMARK   84  A    between atoms: _219  and  _221
REMARK   85  A    between atoms: _221  and  _222
REMARK   86  A    between atoms: _221  and  _224
REMARK   87  A    between atoms: _224  and  _225
REMARK   88  A    between atoms: _228  and  _230
REMARK   89  A    between atoms: _230  and  _231
REMARK   90  A    between atoms: _230  and  _233
REMARK   91  A    between atoms: _233  and  _234
REMARK   92  A    between atoms: _234  and  _235
REMARK   93  A    between atoms: _240  and  _242
REMARK   94  A    between atoms: _242  and  _243
REMARK   95  A    between atoms: _242  and  _245
REMARK   96  A    between atoms: _245  and  _246
REMARK   97  A    between atoms: _249  and  _251
REMARK   98  A    between atoms: _251  and  _252
REMARK   99  A    between atoms: _251  and  _254
REMARK  100  A    between atoms: _254  and  _255
REMARK  101  A    between atoms: _258  and  _260
REMARK  102  A    between atoms: _260  and  _261
REMARK  103  A    between atoms: _260  and  _263
REMARK  104  A    between atoms: _263  and  _264
REMARK  105  A    between atoms: _267  and  _269
REMARK  106  A    between atoms: _269  and  _270
REMARK  107  A    between atoms: _269  and  _272
REMARK  108  A    between atoms: _272  and  _273
REMARK  109  A    between atoms: _275  and  _277
REMARK  110  A    between atoms: _277  and  _278
REMARK  111  A    between atoms: _277  and  _280
REMARK  112  A    between atoms: _283  and  _285
REMARK  113  A    between atoms: _285  and  _286
REMARK  114  A    between atoms: _285  and  _288
REMARK  115  A    between atoms: _288  and  _289
REMARK  116  A    between atoms: _289  and  _290
REMARK  117  A    between atoms: _290  and  _291
REMARK  118  A    between atoms: _291  and  _292
REMARK  119  A    between atoms: _297  and  _298
REMARK  120  A    between atoms: _303  and  _305
REMARK  121  A    between atoms: _305  and  _306
REMARK  122  A    between atoms: _305  and  _308
REMARK  123  A    between atoms: _308  and  _309
REMARK  124  A    between atoms: _314  and  _316
REMARK  125  A    between atoms: _316  and  _317
REMARK  126  A    between atoms: _316  and  _319
REMARK  127  A    between atoms: _319  and  _320
REMARK  128  A    between atoms: _323  and  _325
REMARK  129  A    between atoms: _325  and  _326
REMARK  130  A    between atoms: _325  and  _328
REMARK  131  A    between atoms: _331  and  _333
REMARK  132  A    between atoms: _333  and  _334
REMARK  133  A    between atoms: _336  and  _338
REMARK  134  A    between atoms: _338  and  _339
REMARK  135  A    between atoms: _338  and  _341
REMARK  136  A    between atoms: _341  and  _342
REMARK  137  A    between atoms: _342  and  _343
REMARK  138  A    between atoms: _343  and  _344
REMARK  139  A    between atoms: _344  and  _345
REMARK  140  A    between atoms: _349  and  _351
REMARK  141  A    between atoms: _351  and  _352
REMARK  142  A    between atoms: _351  and  _354
REMARK  143  A    between atoms: _354  and  _355
REMARK  144  A    between atoms: _358  and  _360
REMARK  145  A    between atoms: _360  and  _361
REMARK  146  A    between atoms: _364  and  _366
REMARK  147  A    between atoms: _366  and  _367
REMARK  148  A    between atoms: _369  and  _371
REMARK  149  A    between atoms: _371  and  _372
REMARK  150  A    between atoms: _371  and  _374
REMARK  151  A    between atoms: _374  and  _375
REMARK  152  A    between atoms: _378  and  _380
REMARK  153  A    between atoms: _380  and  _381
REMARK  154  A    between atoms: _380  and  _383
REMARK  155  A    between atoms: _383  and  _384
REMARK  156  A    between atoms: _387  and  _389
REMARK  157  A    between atoms: _389  and  _390
REMARK  158  A    between atoms: _393  and  _395
REMARK  159  A    between atoms: _395  and  _396
REMARK  160  A    between atoms: _395  and  _398
REMARK  161  A    between atoms: _398  and  _399
REMARK  162  A    between atoms: _399  and  _400
REMARK  163  A    between atoms: _403  and  _405
REMARK  164  A    between atoms: _405  and  _406
REMARK  165  A    between atoms: _405  and  _408
REMARK  166  A    between atoms: _411  and  _413
REMARK  167  A    between atoms: _413  and  _414
REMARK  168  A    between atoms: _413  and  _416
REMARK  169  A    between atoms: _416  and  _417
REMARK  170  A    between atoms: _420  and  _422
REMARK  171  A    between atoms: _422  and  _423
REMARK  172  A    between atoms: _425  and  _427
REMARK  173  A    between atoms: _427  and  _428
REMARK  174  A    between atoms: _427  and  _430
REMARK  175  A    between atoms: _433  and  _435
REMARK  176  A    between atoms: _435  and  _436
REMARK  177  A    between atoms: _438  and  _440
REMARK  178  A    between atoms: _440  and  _441
REMARK  179  A    between atoms: _440  and  _443
REMARK  180  A    between atoms: _443  and  _444
REMARK  181  A    between atoms: _447  and  _449
REMARK  182  A    between atoms: _449  and  _450
REMARK  183  A    between atoms: _449  and  _452
REMARK  184  A    between atoms: _452  and  _453
REMARK  185  A    between atoms: _458  and  _460
REMARK  186  A    between atoms: _460  and  _461
REMARK  187  A    between atoms: _460  and  _463
REMARK  188  A    between atoms: _466  and  _468
REMARK  189  A    between atoms: _468  and  _469
REMARK  190  A    between atoms: _468  and  _471
REMARK  191  A    between atoms: _471  and  _472
REMARK  192  A    between atoms: _472  and  _473
REMARK  193  A    between atoms: _478  and  _480
REMARK  194  A    between atoms: _480  and  _481
REMARK  195  A    between atoms: _485  and  _486
REMARK  196  A    between atoms: _491  and  _493
REMARK  197  A    between atoms: _493  and  _494
REMARK  198  A    between atoms: _493  and  _496
REMARK  199  A    between atoms: _496  and  _497
REMARK  200  A    between atoms: _497  and  _498
REMARK  201  A    between atoms: _501  and  _503
REMARK  202  A    between atoms: _503  and  _504
REMARK  203  A    between atoms: _503  and  _506
REMARK  204  A    between atoms: _509  and  _511
REMARK  205  A    between atoms: _511  and  _512
REMARK  206  A    between atoms: _511  and  _514
REMARK  207  A    between atoms: _514  and  _515
REMARK  208  A    between atoms: _519  and  _520
REMARK  209  A    between atoms: _525  and  _527
REMARK  210  A    between atoms: _527  and  _528
REMARK  211  A    between atoms: _527  and  _530
REMARK  212  A    between atoms: _530  and  _531
REMARK  213  A    between atoms: _534  and  _536
REMARK  214  A    between atoms: _536  and  _537
REMARK  215  A    between atoms: _540  and  _542
REMARK  216  A    between atoms: _542  and  _543
REMARK  217  A    between atoms: _542  and  _545
REMARK  218  A    between atoms: _545  and  _546
REMARK  219  A    between atoms: _549  and  _551
REMARK  220  A    between atoms: _551  and  _552
REMARK  221  A    between atoms: _551  and  _554
REMARK  222  A    between atoms: _554  and  _555
REMARK  223  A    between atoms: _557  and  _559
REMARK  224  A    between atoms: _559  and  _560
REMARK  225  A    between atoms: _562  and  _564
REMARK  226  A    between atoms: _564  and  _565
REMARK  227  A    between atoms: _564  and  _567
REMARK  228  A    between atoms: _567  and  _568
REMARK  229  A    between atoms: _571  and  _573
REMARK  230  A    between atoms: _573  and  _574
REMARK  231  A    between atoms: _573  and  _576
REMARK                            x       y       z     vdW  Elec       q    Type
REMARK                         _______ _______ _______ _____ _____    ______ ____
ROOT
ATOM      1  O   HOH     1      -6.298   4.526   6.512  0.00  0.00    +0.000 OA
ENDROOT
TORSDOF 0
REMARK  Name = ../refined-set-2016/4xu2/4xu2_pocket.pdb
REMARK  231 active torsions:
REMARK  status: ('A' for Active; 'I' for Inactive)
REMARK    1  A    between atoms: _1  and  _3
REMARK    2  A    between atoms: _3  and  _4
REMARK    3  A    between atoms: _3  and  _6
REMARK    4  A    between atoms: _6  and  _7
REMARK    5  A    between atoms: _10  and  _12
REMARK    6  A    between atoms: _12  and  _13
REMARK    7  A    between atoms: _15  and  _17
REMARK    8  A    between atoms: _17  and  _18
REMARK    9  A    between atoms: _17  and  _20
REMARK   10  A    between atoms: _20  and  _21
REMARK   11  A    between atoms: _23  and  _25
REMARK   12  A    between atoms: _25  and  _26
REMARK   13  A    between atoms: _25  and  _28
REMARK   14  A    between atoms: _28  and  _29
REMARK   15  A    between atoms: _32  and  _34
REMARK   16  A    between atoms: _34  and  _35
REMARK   17  A    between atoms: _34  and  _37
REMARK   18  A    between atoms: _37  and  _38
REMARK   19  A    between atoms: _43  and  _45
REMARK   20  A    between atoms: _45  and  _46
REMARK   21  A    between atoms: _49  and  _51
REMARK   22  A    between atoms: _51  and  _52
REMARK   23  A    between atoms: _51  and  _54
REMARK   24  A    between atoms: _54  and  _55
REMARK   25  A    between atoms: _58  and  _60
REMARK   26  A    between atoms: _60  and  _61
REMARK   27  A    between atoms: _60  and  _63
REMARK   28  A    between atoms: _63  and  _64
REMARK   29  A    between atoms: _67  and  _69
REMARK   30  A    between atoms: _69  and  _70
REMARK   31  A    between atoms: _69  and  _72
REMARK   32  A    between atoms: _72  and  _73
REMARK   33  A    between atoms: _76  and  _78
REMARK   34  A    between atoms: _78  and  _79
REMARK   35  A    between atoms: _82  and  _84
REMARK   36  A    between atoms: _84  and  _85
REMARK   37  A    between atoms: _84  and  _87
REMARK   38  A    between atoms: _87  and  _88
REMARK   39  A    between atoms: _88  and  _89
REMARK   40  A    between atoms: _94  and  _96
REMARK   41  A    between atoms: _96  and  _97
REMARK   42  A    between atoms: _96  and  _99
REMARK   43  A    between atoms: _99  and  _100
REMARK   44  A    between atoms: _103  and  _105
REMARK   45  A    between atoms: _105  and  _106
REMARK   46  A    between atoms: _109  and  _111
REMARK   47  A    between atoms: _111  and  _112
REMARK   48  A    between atoms: _114  and  _116
REMARK   49  A    between atoms: _116  and  _117
REMARK   50  A    between atoms: _116  and  _119
REMARK   51  A    between atoms: _119  and  _120
REMARK   52  A    between atoms: _120  and  _121
REMARK   53  A    between atoms: _121  and  _122
REMARK   54  A    between atoms: _131  and  _133
REMARK   55  A    between atoms: _133  and  _134
REMARK   56  A    between atoms: _136  and  _138
REMARK   57  A    between atoms: _138  and  _139
REMARK   58  A    between atoms: _138  and  _141
REMARK   59  A    between atoms: _141  and  _142
REMARK   60  A    between atoms: _142  and  _143
REMARK   61  A    between atoms: _143  and  _144
REMARK   62  A    between atoms: _153  and  _155
REMARK   63  A    between atoms: _155  and  _156
REMARK   64  A    between atoms: _155  and  _158
REMARK   65  A    between atoms: _158  and  _159
REMARK   66  A    between atoms: _164  and  _166
REMARK   67  A    between atoms: _166  and  _167
REMARK   68  A    between atoms: _169  and  _171
REMARK   69  A    between atoms: _171  and  _172
REMARK   70  A    between atoms: _171  and  _174
REMARK   71  A    between atoms: _174  and  _175
REMARK   72  A    between atoms: _175  and  _176
REMARK   73  A    between atoms: _176  and  _177
REMARK   74  A    between atoms: _186  and  _188
REMARK   75  A    between atoms: _188  and  _189
REMARK   76  A    between atoms: _191  and  _193
REMARK   77  A    between atoms: _193  and  _194
REMARK   78  A    between atoms: _193  and  _196
REMARK   79  A    between atoms: _196  and  _197
REMARK   80  A    between atoms: _207  and  _209
REMARK   81  A    between atoms: _209  and  _210
REMARK   82  A    between atoms: _213  and  _215
REMARK   83  A    between atoms: _215  and  _216
REMARK   84  A    between atoms: _219  and  _221
REMARK   85  A    between atoms: _221  and  _222
REMARK   86  A    between atoms: _221  and  _224
REMARK   87  A    between atoms: _224  and  _225
REMARK   88  A    between atoms: _228  and  _230
REMARK   89  A    between atoms: _230  and  _231
REMARK   90  A    between atoms: _230  and  _233
REMARK   91  A    between atoms: _233  and  _234
REMARK   92  A    between atoms: _234  and  _235
REMARK   93  A    between atoms: _240  and  _242
REMARK   94  A    between atoms: _242  and  _243
REMARK   95  A    between atoms: _242  and  _245
REMARK   96  A    between atoms: _245  and  _246
REMARK   97  A    between atoms: _249  and  _251
REMARK   98  A    between atoms: _251  and  _252
REMARK   99  A    between atoms: _251  and  _254
REMARK  100  A    between atoms: _254  and  _255
REMARK  101  A    between atoms: _258  and  _260
REMARK  102  A    between atoms: _260  and  _261
REMARK  103  A    between atoms: _260  and  _263
REMARK  104  A    between atoms: _263  and  _264
REMARK  105  A    between atoms: _267  and  _269
REMARK  106  A    between atoms: _269  and  _270
REMARK  107  A    between atoms: _269  and  _272
REMARK  108  A    between atoms: _272  and  _273
REMARK  109  A    between atoms: _275  and  _277
REMARK  110  A    between atoms: _277  and  _278
REMARK  111  A    between atoms: _277  and  _280
REMARK  112  A    between atoms: _283  and  _285
REMARK  113  A    between atoms: _285  and  _286
REMARK  114  A    between atoms: _285  and  _288
REMARK  115  A    between atoms: _288  and  _289
REMARK  116  A    between atoms: _289  and  _290
REMARK  117  A    between atoms: _290  and  _291
REMARK  118  A    between atoms: _291  and  _292
REMARK  119  A    between atoms: _297  and  _298
REMARK  120  A    between atoms: _303  and  _305
REMARK  121  A    between atoms: _305  and  _306
REMARK  122  A    between atoms: _305  and  _308
REMARK  123  A    between atoms: _308  and  _309
REMARK  124  A    between atoms: _314  and  _316
REMARK  125  A    between atoms: _316  and  _317
REMARK  126  A    between atoms: _316  and  _319
REMARK  127  A    between atoms: _319  and  _320
REMARK  128  A    between atoms: _323  and  _325
REMARK  129  A    between atoms: _325  and  _326
REMARK  130  A    between atoms: _325  and  _328
REMARK  131  A    between atoms: _331  and  _333
REMARK  132  A    between atoms: _333  and  _334
REMARK  133  A    between atoms: _336  and  _338
REMARK  134  A    between atoms: _338  and  _339
REMARK  135  A    between atoms: _338  and  _341
REMARK  136  A    between atoms: _341  and  _342
REMARK  137  A    between atoms: _342  and  _343
REMARK  138  A    between atoms: _343  and  _344
REMARK  139  A    between atoms: _344  and  _345
REMARK  140  A    between atoms: _349  and  _351
REMARK  141  A    between atoms: _351  and  _352
REMARK  142  A    between atoms: _351  and  _354
REMARK  143  A    between atoms: _354  and  _355
REMARK  144  A    between atoms: _358  and  _360
REMARK  145  A    between atoms: _360  and  _361
REMARK  146  A    between atoms: _364  and  _366
REMARK  147  A    between atoms: _366  and  _367
REMARK  148  A    between atoms: _369  and  _371
REMARK  149  A    between atoms: _371  and  _372
REMARK  150  A    between atoms: _371  and  _374
REMARK  151  A    between atoms: _374  and  _375
REMARK  152  A    between atoms: _378  and  _380
REMARK  153  A    between atoms: _380  and  _381
REMARK  154  A    between atoms: _380  and  _383
REMARK  155  A    between atoms: _383  and  _384
REMARK  156  A    between atoms: _387  and  _389
REMARK  157  A    between atoms: _389  and  _390
REMARK  158  A    between atoms: _393  and  _395
REMARK  159  A    between atoms: _395  and  _396
REMARK  160  A    between atoms: _395  and  _398
REMARK  161  A    between atoms: _398  and  _399
REMARK  162  A    between atoms: _399  and  _400
REMARK  163  A    between atoms: _403  and  _405
REMARK  164  A    between atoms: _405  and  _406
REMARK  165  A    between atoms: _405  and  _408
REMARK  166  A    between atoms: _411  and  _413
REMARK  167  A    between atoms: _413  and  _414
REMARK  168  A    between atoms: _413  and  _416
REMARK  169  A    between atoms: _416  and  _417
REMARK  170  A    between atoms: _420  and  _422
REMARK  171  A    between atoms: _422  and  _423
REMARK  172  A    between atoms: _425  and  _427
REMARK  173  A    between atoms: _427  and  _428
REMARK  174  A    between atoms: _427  and  _430
REMARK  175  A    between atoms: _433  and  _435
REMARK  176  A    between atoms: _435  and  _436
REMARK  177  A    between atoms: _438  and  _440
REMARK  178  A    between atoms: _440  and  _441
REMARK  179  A    between atoms: _440  and  _443
REMARK  180  A    between atoms: _443  and  _444
REMARK  181  A    between atoms: _447  and  _449
REMARK  182  A    between atoms: _449  and  _450
REMARK  183  A    between atoms: _449  and  _452
REMARK  184  A    between atoms: _452  and  _453
REMARK  185  A    between atoms: _458  and  _460
REMARK  186  A    between atoms: _460  and  _461
REMARK  187  A    between atoms: _460  and  _463
REMARK  188  A    between atoms: _466  and  _468
REMARK  189  A    between atoms: _468  and  _469
REMARK  190  A    between atoms: _468  and  _471
REMARK  191  A    between atoms: _471  and  _472
REMARK  192  A    between atoms: _472  and  _473
REMARK  193  A    between atoms: _478  and  _480
REMARK  194  A    between atoms: _480  and  _481
REMARK  195  A    between atoms: _485  and  _486
REMARK  196  A    between atoms: _491  and  _493
REMARK  197  A    between atoms: _493  and  _494
REMARK  198  A    between atoms: _493  and  _496
REMARK  199  A    between atoms: _496  and  _497
REMARK  200  A    between atoms: _497  and  _498
REMARK  201  A    between atoms: _501  and  _503
REMARK  202  A    between atoms: _503  and  _504
REMARK  203  A    between atoms: _503  and  _506
REMARK  204  A    between atoms: _509  and  _511
REMARK  205  A    between atoms: _511  and  _512
REMARK  206  A    between atoms: _511  and  _514
REMARK  207  A    between atoms: _514  and  _515
REMARK  208  A    between atoms: _519  and  _520
REMARK  209  A    between atoms: _525  and  _527
REMARK  210  A    between atoms: _527  and  _528
REMARK  211  A    between atoms: _527  and  _530
REMARK  212  A    between atoms: _530  and  _531
REMARK  213  A    between atoms: _534  and  _536
REMARK  214  A    between atoms: _536  and  _537
REMARK  215  A    between atoms: _540  and  _542
REMARK  216  A    between atoms: _542  and  _543
REMARK  217  A    between atoms: _542  and  _545
REMARK  218  A    between atoms: _545  and  _546
REMARK  219  A    between atoms: _549  and  _551
REMARK  220  A    between atoms: _551  and  _552
REMARK  221  A    between atoms: _551  and  _554
REMARK  222  A    between atoms: _554  and  _555
REMARK  223  A    between atoms: _557  and  _559
REMARK  224  A    between atoms: _559  and  _560
REMARK  225  A    between atoms: _562  and  _564
REMARK  226  A    between atoms: _564  and  _565
REMARK  227  A    between atoms: _564  and  _567
REMARK  228  A    between atoms: _567  and  _568
REMARK  229  A    between atoms: _571  and  _573
REMARK  230  A    between atoms: _573  and  _574
REMARK  231  A    between atoms: _573  and  _576
REMARK                            x       y       z     vdW  Elec       q    Type
REMARK                         _______ _______ _______ _____ _____    ______ ____
ROOT
ATOM      1  O   HOH     1      -2.649   4.356  10.230  0.00  0.00    +0.000 OA
ENDROOT
TORSDOF 0
REMARK  Name = ../refined-set-2016/4xu2/4xu2_pocket.pdb
REMARK  231 active torsions:
REMARK  status: ('A' for Active; 'I' for Inactive)
REMARK    1  A    between atoms: _1  and  _3
REMARK    2  A    between atoms: _3  and  _4
REMARK    3  A    between atoms: _3  and  _6
REMARK    4  A    between atoms: _6  and  _7
REMARK    5  A    between atoms: _10  and  _12
REMARK    6  A    between atoms: _12  and  _13
REMARK    7  A    between atoms: _15  and  _17
REMARK    8  A    between atoms: _17  and  _18
REMARK    9  A    between atoms: _17  and  _20
REMARK   10  A    between atoms: _20  and  _21
REMARK   11  A    between atoms: _23  and  _25
REMARK   12  A    between atoms: _25  and  _26
REMARK   13  A    between atoms: _25  and  _28
REMARK   14  A    between atoms: _28  and  _29
REMARK   15  A    between atoms: _32  and  _34
REMARK   16  A    between atoms: _34  and  _35
REMARK   17  A    between atoms: _34  and  _37
REMARK   18  A    between atoms: _37  and  _38
REMARK   19  A    between atoms: _43  and  _45
REMARK   20  A    between atoms: _45  and  _46
REMARK   21  A    between atoms: _49  and  _51
REMARK   22  A    between atoms: _51  and  _52
REMARK   23  A    between atoms: _51  and  _54
REMARK   24  A    between atoms: _54  and  _55
REMARK   25  A    between atoms: _58  and  _60
REMARK   26  A    between atoms: _60  and  _61
REMARK   27  A    between atoms: _60  and  _63
REMARK   28  A    between atoms: _63  and  _64
REMARK   29  A    between atoms: _67  and  _69
REMARK   30  A    between atoms: _69  and  _70
REMARK   31  A    between atoms: _69  and  _72
REMARK   32  A    between atoms: _72  and  _73
REMARK   33  A    between atoms: _76  and  _78
REMARK   34  A    between atoms: _78  and  _79
REMARK   35  A    between atoms: _82  and  _84
REMARK   36  A    between atoms: _84  and  _85
REMARK   37  A    between atoms: _84  and  _87
REMARK   38  A    between atoms: _87  and  _88
REMARK   39  A    between atoms: _88  and  _89
REMARK   40  A    between atoms: _94  and  _96
REMARK   41  A    between atoms: _96  and  _97
REMARK   42  A    between atoms: _96  and  _99
REMARK   43  A    between atoms: _99  and  _100
REMARK   44  A    between atoms: _103  and  _105
REMARK   45  A    between atoms: _105  and  _106
REMARK   46  A    between atoms: _109  and  _111
REMARK   47  A    between atoms: _111  and  _112
REMARK   48  A    between atoms: _114  and  _116
REMARK   49  A    between atoms: _116  and  _117
REMARK   50  A    between atoms: _116  and  _119
REMARK   51  A    between atoms: _119  and  _120
REMARK   52  A    between atoms: _120  and  _121
REMARK   53  A    between atoms: _121  and  _122
REMARK   54  A    between atoms: _131  and  _133
REMARK   55  A    between atoms: _133  and  _134
REMARK   56  A    between atoms: _136  and  _138
REMARK   57  A    between atoms: _138  and  _139
REMARK   58  A    between atoms: _138  and  _141
REMARK   59  A    between atoms: _141  and  _142
REMARK   60  A    between atoms: _142  and  _143
REMARK   61  A    between atoms: _143  and  _144
REMARK   62  A    between atoms: _153  and  _155
REMARK   63  A    between atoms: _155  and  _156
REMARK   64  A    between atoms: _155  and  _158
REMARK   65  A    between atoms: _158  and  _159
REMARK   66  A    between atoms: _164  and  _166
REMARK   67  A    between atoms: _166  and  _167
REMARK   68  A    between atoms: _169  and  _171
REMARK   69  A    between atoms: _171  and  _172
REMARK   70  A    between atoms: _171  and  _174
REMARK   71  A    between atoms: _174  and  _175
REMARK   72  A    between atoms: _175  and  _176
REMARK   73  A    between atoms: _176  and  _177
REMARK   74  A    between atoms: _186  and  _188
REMARK   75  A    between atoms: _188  and  _189
REMARK   76  A    between atoms: _191  and  _193
REMARK   77  A    between atoms: _193  and  _194
REMARK   78  A    between atoms: _193  and  _196
REMARK   79  A    between atoms: _196  and  _197
REMARK   80  A    between atoms: _207  and  _209
REMARK   81  A    between atoms: _209  and  _210
REMARK   82  A    between atoms: _213  and  _215
REMARK   83  A    between atoms: _215  and  _216
REMARK   84  A    between atoms: _219  and  _221
REMARK   85  A    between atoms: _221  and  _222
REMARK   86  A    between atoms: _221  and  _224
REMARK   87  A    between atoms: _224  and  _225
REMARK   88  A    between atoms: _228  and  _230
REMARK   89  A    between atoms: _230  and  _231
REMARK   90  A    between atoms: _230  and  _233
REMARK   91  A    between atoms: _233  and  _234
REMARK   92  A    between atoms: _234  and  _235
REMARK   93  A    between atoms: _240  and  _242
REMARK   94  A    between atoms: _242  and  _243
REMARK   95  A    between atoms: _242  and  _245
REMARK   96  A    between atoms: _245  and  _246
REMARK   97  A    between atoms: _249  and  _251
REMARK   98  A    between atoms: _251  and  _252
REMARK   99  A    between atoms: _251  and  _254
REMARK  100  A    between atoms: _254  and  _255
REMARK  101  A    between atoms: _258  and  _260
REMARK  102  A    between atoms: _260  and  _261
REMARK  103  A    between atoms: _260  and  _263
REMARK  104  A    between atoms: _263  and  _264
REMARK  105  A    between atoms: _267  and  _269
REMARK  106  A    between atoms: _269  and  _270
REMARK  107  A    between atoms: _269  and  _272
REMARK  108  A    between atoms: _272  and  _273
REMARK  109  A    between atoms: _275  and  _277
REMARK  110  A    between atoms: _277  and  _278
REMARK  111  A    between atoms: _277  and  _280
REMARK  112  A    between atoms: _283  and  _285
REMARK  113  A    between atoms: _285  and  _286
REMARK  114  A    between atoms: _285  and  _288
REMARK  115  A    between atoms: _288  and  _289
REMARK  116  A    between atoms: _289  and  _290
REMARK  117  A    between atoms: _290  and  _291
REMARK  118  A    between atoms: _291  and  _292
REMARK  119  A    between atoms: _297  and  _298
REMARK  120  A    between atoms: _303  and  _305
REMARK  121  A    between atoms: _305  and  _306
REMARK  122  A    between atoms: _305  and  _308
REMARK  123  A    between atoms: _308  and  _309
REMARK  124  A    between atoms: _314  and  _316
REMARK  125  A    between atoms: _316  and  _317
REMARK  126  A    between atoms: _316  and  _319
REMARK  127  A    between atoms: _319  and  _320
REMARK  128  A    between atoms: _323  and  _325
REMARK  129  A    between atoms: _325  and  _326
REMARK  130  A    between atoms: _325  and  _328
REMARK  131  A    between atoms: _331  and  _333
REMARK  132  A    between atoms: _333  and  _334
REMARK  133  A    between atoms: _336  and  _338
REMARK  134  A    between atoms: _338  and  _339
REMARK  135  A    between atoms: _338  and  _341
REMARK  136  A    between atoms: _341  and  _342
REMARK  137  A    between atoms: _342  and  _343
REMARK  138  A    between atoms: _343  and  _344
REMARK  139  A    between atoms: _344  and  _345
REMARK  140  A    between atoms: _349  and  _351
REMARK  141  A    between atoms: _351  and  _352
REMARK  142  A    between atoms: _351  and  _354
REMARK  143  A    between atoms: _354  and  _355
REMARK  144  A    between atoms: _358  and  _360
REMARK  145  A    between atoms: _360  and  _361
REMARK  146  A    between atoms: _364  and  _366
REMARK  147  A    between atoms: _366  and  _367
REMARK  148  A    between atoms: _369  and  _371
REMARK  149  A    between atoms: _371  and  _372
REMARK  150  A    between atoms: _371  and  _374
REMARK  151  A    between atoms: _374  and  _375
REMARK  152  A    between atoms: _378  and  _380
REMARK  153  A    between atoms: _380  and  _381
REMARK  154  A    between atoms: _380  and  _383
REMARK  155  A    between atoms: _383  and  _384
REMARK  156  A    between atoms: _387  and  _389
REMARK  157  A    between atoms: _389  and  _390
REMARK  158  A    between atoms: _393  and  _395
REMARK  159  A    between atoms: _395  and  _396
REMARK  160  A    between atoms: _395  and  _398
REMARK  161  A    between atoms: _398  and  _399
REMARK  162  A    between atoms: _399  and  _400
REMARK  163  A    between atoms: _403  and  _405
REMARK  164  A    between atoms: _405  and  _406
REMARK  165  A    between atoms: _405  and  _408
REMARK  166  A    between atoms: _411  and  _413
REMARK  167  A    between atoms: _413  and  _414
REMARK  168  A    between atoms: _413  and  _416
REMARK  169  A    between atoms: _416  and  _417
REMARK  170  A    between atoms: _420  and  _422
REMARK  171  A    between atoms: _422  and  _423
REMARK  172  A    between atoms: _425  and  _427
REMARK  173  A    between atoms: _427  and  _428
REMARK  174  A    between atoms: _427  and  _430
REMARK  175  A    between atoms: _433  and  _435
REMARK  176  A    between atoms: _435  and  _436
REMARK  177  A    between atoms: _438  and  _440
REMARK  178  A    between atoms: _440  and  _441
REMARK  179  A    between atoms: _440  and  _443
REMARK  180  A    between atoms: _443  and  _444
REMARK  181  A    between atoms: _447  and  _449
REMARK  182  A    between atoms: _449  and  _450
REMARK  183  A    between atoms: _449  and  _452
REMARK  184  A    between atoms: _452  and  _453
REMARK  185  A    between atoms: _458  and  _460
REMARK  186  A    between atoms: _460  and  _461
REMARK  187  A    between atoms: _460  and  _463
REMARK  188  A    between atoms: _466  and  _468
REMARK  189  A    between atoms: _468  and  _469
REMARK  190  A    between atoms: _468  and  _471
REMARK  191  A    between atoms: _471  and  _472
REMARK  192  A    between atoms: _472  and  _473
REMARK  193  A    between atoms: _478  and  _480
REMARK  194  A    between atoms: _480  and  _481
REMARK  195  A    between atoms: _485  and  _486
REMARK  196  A    between atoms: _491  and  _493
REMARK  197  A    between atoms: _493  and  _494
REMARK  198  A    between atoms: _493  and  _496
REMARK  199  A    between atoms: _496  and  _497
REMARK  200  A    between atoms: _497  and  _498
REMARK  201  A    between atoms: _501  and  _503
REMARK  202  A    between atoms: _503  and  _504
REMARK  203  A    between atoms: _503  and  _506
REMARK  204  A    between atoms: _509  and  _511
REMARK  205  A    between atoms: _511  and  _512
REMARK  206  A    between atoms: _511  and  _514
REMARK  207  A    between atoms: _514  and  _515
REMARK  208  A    between atoms: _519  and  _520
REMARK  209  A    between atoms: _525  and  _527
REMARK  210  A    between atoms: _527  and  _528
REMARK  211  A    between atoms: _527  and  _530
REMARK  212  A    between atoms: _530  and  _531
REMARK  213  A    between atoms: _534  and  _536
REMARK  214  A    between atoms: _536  and  _537
REMARK  215  A    between atoms: _540  and  _542
REMARK  216  A    between atoms: _542  and  _543
REMARK  217  A    between atoms: _542  and  _545
REMARK  218  A    between atoms: _545  and  _546
REMARK  219  A    between atoms: _549  and  _551
REMARK  220  A    between atoms: _551  and  _552
REMARK  221  A    between atoms: _551  and  _554
REMARK  222  A    between atoms: _554  and  _555
REMARK  223  A    between atoms: _557  and  _559
REMARK  224  A    between atoms: _559  and  _560
REMARK  225  A    between atoms: _562  and  _564
REMARK  226  A    between atoms: _564  and  _565
REMARK  227  A    between atoms: _564  and  _567
REMARK  228  A    between atoms: _567  and  _568
REMARK  229  A    between atoms: _571  and  _573
REMARK  230  A    between atoms: _573  and  _574
REMARK  231  A    between atoms: _573  and  _576
REMARK                            x       y       z     vdW  Elec       q    Type
REMARK                         _______ _______ _______ _____ _____    ______ ____
ROOT
ATOM      1  O   HOH     1       1.032   0.149   8.228  0.00  0.00    +0.000 OA
ENDROOT
TORSDOF 0
REMARK  Name = ../refined-set-2016/4xu2/4xu2_pocket.pdb
REMARK  231 active torsions:
REMARK  status: ('A' for Active; 'I' for Inactive)
REMARK    1  A    between atoms: _1  and  _3
REMARK    2  A    between atoms: _3  and  _4
REMARK    3  A    between atoms: _3  and  _6
REMARK    4  A    between atoms: _6  and  _7
REMARK    5  A    between atoms: _10  and  _12
REMARK    6  A    between atoms: _12  and  _13
REMARK    7  A    between atoms: _15  and  _17
REMARK    8  A    between atoms: _17  and  _18
REMARK    9  A    between atoms: _17  and  _20
REMARK   10  A    between atoms: _20  and  _21
REMARK   11  A    between atoms: _23  and  _25
REMARK   12  A    between atoms: _25  and  _26
REMARK   13  A    between atoms: _25  and  _28
REMARK   14  A    between atoms: _28  and  _29
REMARK   15  A    between atoms: _32  and  _34
REMARK   16  A    between atoms: _34  and  _35
REMARK   17  A    between atoms: _34  and  _37
REMARK   18  A    between atoms: _37  and  _38
REMARK   19  A    between atoms: _43  and  _45
REMARK   20  A    between atoms: _45  and  _46
REMARK   21  A    between atoms: _49  and  _51
REMARK   22  A    between atoms: _51  and  _52
REMARK   23  A    between atoms: _51  and  _54
REMARK   24  A    between atoms: _54  and  _55
REMARK   25  A    between atoms: _58  and  _60
REMARK   26  A    between atoms: _60  and  _61
REMARK   27  A    between atoms: _60  and  _63
REMARK   28  A    between atoms: _63  and  _64
REMARK   29  A    between atoms: _67  and  _69
REMARK   30  A    between atoms: _69  and  _70
REMARK   31  A    between atoms: _69  and  _72
REMARK   32  A    between atoms: _72  and  _73
REMARK   33  A    between atoms: _76  and  _78
REMARK   34  A    between atoms: _78  and  _79
REMARK   35  A    between atoms: _82  and  _84
REMARK   36  A    between atoms: _84  and  _85
REMARK   37  A    between atoms: _84  and  _87
REMARK   38  A    between atoms: _87  and  _88
REMARK   39  A    between atoms: _88  and  _89
REMARK   40  A    between atoms: _94  and  _96
REMARK   41  A    between atoms: _96  and  _97
REMARK   42  A    between atoms: _96  and  _99
REMARK   43  A    between atoms: _99  and  _100
REMARK   44  A    between atoms: _103  and  _105
REMARK   45  A    between atoms: _105  and  _106
REMARK   46  A    between atoms: _109  and  _111
REMARK   47  A    between atoms: _111  and  _112
REMARK   48  A    between atoms: _114  and  _116
REMARK   49  A    between atoms: _116  and  _117
REMARK   50  A    between atoms: _116  and  _119
REMARK   51  A    between atoms: _119  and  _120
REMARK   52  A    between atoms: _120  and  _121
REMARK   53  A    between atoms: _121  and  _122
REMARK   54  A    between atoms: _131  and  _133
REMARK   55  A    between atoms: _133  and  _134
REMARK   56  A    between atoms: _136  and  _138
REMARK   57  A    between atoms: _138  and  _139
REMARK   58  A    between atoms: _138  and  _141
REMARK   59  A    between atoms: _141  and  _142
REMARK   60  A    between atoms: _142  and  _143
REMARK   61  A    between atoms: _143  and  _144
REMARK   62  A    between atoms: _153  and  _155
REMARK   63  A    between atoms: _155  and  _156
REMARK   64  A    between atoms: _155  and  _158
REMARK   65  A    between atoms: _158  and  _159
REMARK   66  A    between atoms: _164  and  _166
REMARK   67  A    between atoms: _166  and  _167
REMARK   68  A    between atoms: _169  and  _171
REMARK   69  A    between atoms: _171  and  _172
REMARK   70  A    between atoms: _171  and  _174
REMARK   71  A    between atoms: _174  and  _175
REMARK   72  A    between atoms: _175  and  _176
REMARK   73  A    between atoms: _176  and  _177
REMARK   74  A    between atoms: _186  and  _188
REMARK   75  A    between atoms: _188  and  _189
REMARK   76  A    between atoms: _191  and  _193
REMARK   77  A    between atoms: _193  and  _194
REMARK   78  A    between atoms: _193  and  _196
REMARK   79  A    between atoms: _196  and  _197
REMARK   80  A    between atoms: _207  and  _209
REMARK   81  A    between atoms: _209  and  _210
REMARK   82  A    between atoms: _213  and  _215
REMARK   83  A    between atoms: _215  and  _216
REMARK   84  A    between atoms: _219  and  _221
REMARK   85  A    between atoms: _221  and  _222
REMARK   86  A    between atoms: _221  and  _224
REMARK   87  A    between atoms: _224  and  _225
REMARK   88  A    between atoms: _228  and  _230
REMARK   89  A    between atoms: _230  and  _231
REMARK   90  A    between atoms: _230  and  _233
REMARK   91  A    between atoms: _233  and  _234
REMARK   92  A    between atoms: _234  and  _235
REMARK   93  A    between atoms: _240  and  _242
REMARK   94  A    between atoms: _242  and  _243
REMARK   95  A    between atoms: _242  and  _245
REMARK   96  A    between atoms: _245  and  _246
REMARK   97  A    between atoms: _249  and  _251
REMARK   98  A    between atoms: _251  and  _252
REMARK   99  A    between atoms: _251  and  _254
REMARK  100  A    between atoms: _254  and  _255
REMARK  101  A    between atoms: _258  and  _260
REMARK  102  A    between atoms: _260  and  _261
REMARK  103  A    between atoms: _260  and  _263
REMARK  104  A    between atoms: _263  and  _264
REMARK  105  A    between atoms: _267  and  _269
REMARK  106  A    between atoms: _269  and  _270
REMARK  107  A    between atoms: _269  and  _272
REMARK  108  A    between atoms: _272  and  _273
REMARK  109  A    between atoms: _275  and  _277
REMARK  110  A    between atoms: _277  and  _278
REMARK  111  A    between atoms: _277  and  _280
REMARK  112  A    between atoms: _283  and  _285
REMARK  113  A    between atoms: _285  and  _286
REMARK  114  A    between atoms: _285  and  _288
REMARK  115  A    between atoms: _288  and  _289
REMARK  116  A    between atoms: _289  and  _290
REMARK  117  A    between atoms: _290  and  _291
REMARK  118  A    between atoms: _291  and  _292
REMARK  119  A    between atoms: _297  and  _298
REMARK  120  A    between atoms: _303  and  _305
REMARK  121  A    between atoms: _305  and  _306
REMARK  122  A    between atoms: _305  and  _308
REMARK  123  A    between atoms: _308  and  _309
REMARK  124  A    between atoms: _314  and  _316
REMARK  125  A    between atoms: _316  and  _317
REMARK  126  A    between atoms: _316  and  _319
REMARK  127  A    between atoms: _319  and  _320
REMARK  128  A    between atoms: _323  and  _325
REMARK  129  A    between atoms: _325  and  _326
REMARK  130  A    between atoms: _325  and  _328
REMARK  131  A    between atoms: _331  and  _333
REMARK  132  A    between atoms: _333  and  _334
REMARK  133  A    between atoms: _336  and  _338
REMARK  134  A    between atoms: _338  and  _339
REMARK  135  A    between atoms: _338  and  _341
REMARK  136  A    between atoms: _341  and  _342
REMARK  137  A    between atoms: _342  and  _343
REMARK  138  A    between atoms: _343  and  _344
REMARK  139  A    between atoms: _344  and  _345
REMARK  140  A    between atoms: _349  and  _351
REMARK  141  A    between atoms: _351  and  _352
REMARK  142  A    between atoms: _351  and  _354
REMARK  143  A    between atoms: _354  and  _355
REMARK  144  A    between atoms: _358  and  _360
REMARK  145  A    between atoms: _360  and  _361
REMARK  146  A    between atoms: _364  and  _366
REMARK  147  A    between atoms: _366  and  _367
REMARK  148  A    between atoms: _369  and  _371
REMARK  149  A    between atoms: _371  and  _372
REMARK  150  A    between atoms: _371  and  _374
REMARK  151  A    between atoms: _374  and  _375
REMARK  152  A    between atoms: _378  and  _380
REMARK  153  A    between atoms: _380  and  _381
REMARK  154  A    between atoms: _380  and  _383
REMARK  155  A    between atoms: _383  and  _384
REMARK  156  A    between atoms: _387  and  _389
REMARK  157  A    between atoms: _389  and  _390
REMARK  158  A    between atoms: _393  and  _395
REMARK  159  A    between atoms: _395  and  _396
REMARK  160  A    between atoms: _395  and  _398
REMARK  161  A    between atoms: _398  and  _399
REMARK  162  A    between atoms: _399  and  _400
REMARK  163  A    between atoms: _403  and  _405
REMARK  164  A    between atoms: _405  and  _406
REMARK  165  A    between atoms: _405  and  _408
REMARK  166  A    between atoms: _411  and  _413
REMARK  167  A    between atoms: _413  and  _414
REMARK  168  A    between atoms: _413  and  _416
REMARK  169  A    between atoms: _416  and  _417
REMARK  170  A    between atoms: _420  and  _422
REMARK  171  A    between atoms: _422  and  _423
REMARK  172  A    between atoms: _425  and  _427
REMARK  173  A    between atoms: _427  and  _428
REMARK  174  A    between atoms: _427  and  _430
REMARK  175  A    between atoms: _433  and  _435
REMARK  176  A    between atoms: _435  and  _436
REMARK  177  A    between atoms: _438  and  _440
REMARK  178  A    between atoms: _440  and  _441
REMARK  179  A    between atoms: _440  and  _443
REMARK  180  A    between atoms: _443  and  _444
REMARK  181  A    between atoms: _447  and  _449
REMARK  182  A    between atoms: _449  and  _450
REMARK  183  A    between atoms: _449  and  _452
REMARK  184  A    between atoms: _452  and  _453
REMARK  185  A    between atoms: _458  and  _460
REMARK  186  A    between atoms: _460  and  _461
REMARK  187  A    between atoms: _460  and  _463
REMARK  188  A    between atoms: _466  and  _468
REMARK  189  A    between atoms: _468  and  _469
REMARK  190  A    between atoms: _468  and  _471
REMARK  191  A    between atoms: _471  and  _472
REMARK  192  A    between atoms: _472  and  _473
REMARK  193  A    between atoms: _478  and  _480
REMARK  194  A    between atoms: _480  and  _481
REMARK  195  A    between atoms: _485  and  _486
REMARK  196  A    between atoms: _491  and  _493
REMARK  197  A    between atoms: _493  and  _494
REMARK  198  A    between atoms: _493  and  _496
REMARK  199  A    between atoms: _496  and  _497
REMARK  200  A    between atoms: _497  and  _498
REMARK  201  A    between atoms: _501  and  _503
REMARK  202  A    between atoms: _503  and  _504
REMARK  203  A    between atoms: _503  and  _506
REMARK  204  A    between atoms: _509  and  _511
REMARK  205  A    between atoms: _511  and  _512
REMARK  206  A    between atoms: _511  and  _514
REMARK  207  A    between atoms: _514  and  _515
REMARK  208  A    between atoms: _519  and  _520
REMARK  209  A    between atoms: _525  and  _527
REMARK  210  A    between atoms: _527  and  _528
REMARK  211  A    between atoms: _527  and  _530
REMARK  212  A    between atoms: _530  and  _531
REMARK  213  A    between atoms: _534  and  _536
REMARK  214  A    between atoms: _536  and  _537
REMARK  215  A    between atoms: _540  and  _542
REMARK  216  A    between atoms: _542  and  _543
REMARK  217  A    between atoms: _542  and  _545
REMARK  218  A    between atoms: _545  and  _546
REMARK  219  A    between atoms: _549  and  _551
REMARK  220  A    between atoms: _551  and  _552
REMARK  221  A    between atoms: _551  and  _554
REMARK  222  A    between atoms: _554  and  _555
REMARK  223  A    between atoms: _557  and  _559
REMARK  224  A    between atoms: _559  and  _560
REMARK  225  A    between atoms: _562  and  _564
REMARK  226  A    between atoms: _564  and  _565
REMARK  227  A    between atoms: _564  and  _567
REMARK  228  A    between atoms: _567  and  _568
REMARK  229  A    between atoms: _571  and  _573
REMARK  230  A    between atoms: _573  and  _574
REMARK  231  A    between atoms: _573  and  _576
REMARK                            x       y       z     vdW  Elec       q    Type
REMARK                         _______ _______ _______ _____ _____    ______ ____
ROOT
ATOM      1  O   HOH     1       6.839  -7.461  14.942  0.00  0.00    +0.000 OA
ENDROOT
TORSDOF 0
REMARK  Name = ../refined-set-2016/4xu2/4xu2_pocket.pdb
REMARK  231 active torsions:
REMARK  status: ('A' for Active; 'I' for Inactive)
REMARK    1  A    between atoms: _1  and  _3
REMARK    2  A    between atoms: _3  and  _4
REMARK    3  A    between atoms: _3  and  _6
REMARK    4  A    between atoms: _6  and  _7
REMARK    5  A    between atoms: _10  and  _12
REMARK    6  A    between atoms: _12  and  _13
REMARK    7  A    between atoms: _15  and  _17
REMARK    8  A    between atoms: _17  and  _18
REMARK    9  A    between atoms: _17  and  _20
REMARK   10  A    between atoms: _20  and  _21
REMARK   11  A    between atoms: _23  and  _25
REMARK   12  A    between atoms: _25  and  _26
REMARK   13  A    between atoms: _25  and  _28
REMARK   14  A    between atoms: _28  and  _29
REMARK   15  A    between atoms: _32  and  _34
REMARK   16  A    between atoms: _34  and  _35
REMARK   17  A    between atoms: _34  and  _37
REMARK   18  A    between atoms: _37  and  _38
REMARK   19  A    between atoms: _43  and  _45
REMARK   20  A    between atoms: _45  and  _46
REMARK   21  A    between atoms: _49  and  _51
REMARK   22  A    between atoms: _51  and  _52
REMARK   23  A    between atoms: _51  and  _54
REMARK   24  A    between atoms: _54  and  _55
REMARK   25  A    between atoms: _58  and  _60
REMARK   26  A    between atoms: _60  and  _61
REMARK   27  A    between atoms: _60  and  _63
REMARK   28  A    between atoms: _63  and  _64
REMARK   29  A    between atoms: _67  and  _69
REMARK   30  A    between atoms: _69  and  _70
REMARK   31  A    between atoms: _69  and  _72
REMARK   32  A    between atoms: _72  and  _73
REMARK   33  A    between atoms: _76  and  _78
REMARK   34  A    between atoms: _78  and  _79
REMARK   35  A    between atoms: _82  and  _84
REMARK   36  A    between atoms: _84  and  _85
REMARK   37  A    between atoms: _84  and  _87
REMARK   38  A    between atoms: _87  and  _88
REMARK   39  A    between atoms: _88  and  _89
REMARK   40  A    between atoms: _94  and  _96
REMARK   41  A    between atoms: _96  and  _97
REMARK   42  A    between atoms: _96  and  _99
REMARK   43  A    between atoms: _99  and  _100
REMARK   44  A    between atoms: _103  and  _105
REMARK   45  A    between atoms: _105  and  _106
REMARK   46  A    between atoms: _109  and  _111
REMARK   47  A    between atoms: _111  and  _112
REMARK   48  A    between atoms: _114  and  _116
REMARK   49  A    between atoms: _116  and  _117
REMARK   50  A    between atoms: _116  and  _119
REMARK   51  A    between atoms: _119  and  _120
REMARK   52  A    between atoms: _120  and  _121
REMARK   53  A    between atoms: _121  and  _122
REMARK   54  A    between atoms: _131  and  _133
REMARK   55  A    between atoms: _133  and  _134
REMARK   56  A    between atoms: _136  and  _138
REMARK   57  A    between atoms: _138  and  _139
REMARK   58  A    between atoms: _138  and  _141
REMARK   59  A    between atoms: _141  and  _142
REMARK   60  A    between atoms: _142  and  _143
REMARK   61  A    between atoms: _143  and  _144
REMARK   62  A    between atoms: _153  and  _155
REMARK   63  A    between atoms: _155  and  _156
REMARK   64  A    between atoms: _155  and  _158
REMARK   65  A    between atoms: _158  and  _159
REMARK   66  A    between atoms: _164  and  _166
REMARK   67  A    between atoms: _166  and  _167
REMARK   68  A    between atoms: _169  and  _171
REMARK   69  A    between atoms: _171  and  _172
REMARK   70  A    between atoms: _171  and  _174
REMARK   71  A    between atoms: _174  and  _175
REMARK   72  A    between atoms: _175  and  _176
REMARK   73  A    between atoms: _176  and  _177
REMARK   74  A    between atoms: _186  and  _188
REMARK   75  A    between atoms: _188  and  _189
REMARK   76  A    between atoms: _191  and  _193
REMARK   77  A    between atoms: _193  and  _194
REMARK   78  A    between atoms: _193  and  _196
REMARK   79  A    between atoms: _196  and  _197
REMARK   80  A    between atoms: _207  and  _209
REMARK   81  A    between atoms: _209  and  _210
REMARK   82  A    between atoms: _213  and  _215
REMARK   83  A    between atoms: _215  and  _216
REMARK   84  A    between atoms: _219  and  _221
REMARK   85  A    between atoms: _221  and  _222
REMARK   86  A    between atoms: _221  and  _224
REMARK   87  A    between atoms: _224  and  _225
REMARK   88  A    between atoms: _228  and  _230
REMARK   89  A    between atoms: _230  and  _231
REMARK   90  A    between atoms: _230  and  _233
REMARK   91  A    between atoms: _233  and  _234
REMARK   92  A    between atoms: _234  and  _235
REMARK   93  A    between atoms: _240  and  _242
REMARK   94  A    between atoms: _242  and  _243
REMARK   95  A    between atoms: _242  and  _245
REMARK   96  A    between atoms: _245  and  _246
REMARK   97  A    between atoms: _249  and  _251
REMARK   98  A    between atoms: _251  and  _252
REMARK   99  A    between atoms: _251  and  _254
REMARK  100  A    between atoms: _254  and  _255
REMARK  101  A    between atoms: _258  and  _260
REMARK  102  A    between atoms: _260  and  _261
REMARK  103  A    between atoms: _260  and  _263
REMARK  104  A    between atoms: _263  and  _264
REMARK  105  A    between atoms: _267  and  _269
REMARK  106  A    between atoms: _269  and  _270
REMARK  107  A    between atoms: _269  and  _272
REMARK  108  A    between atoms: _272  and  _273
REMARK  109  A    between atoms: _275  and  _277
REMARK  110  A    between atoms: _277  and  _278
REMARK  111  A    between atoms: _277  and  _280
REMARK  112  A    between atoms: _283  and  _285
REMARK  113  A    between atoms: _285  and  _286
REMARK  114  A    between atoms: _285  and  _288
REMARK  115  A    between atoms: _288  and  _289
REMARK  116  A    between atoms: _289  and  _290
REMARK  117  A    between atoms: _290  and  _291
REMARK  118  A    between atoms: _291  and  _292
REMARK  119  A    between atoms: _297  and  _298
REMARK  120  A    between atoms: _303  and  _305
REMARK  121  A    between atoms: _305  and  _306
REMARK  122  A    between atoms: _305  and  _308
REMARK  123  A    between atoms: _308  and  _309
REMARK  124  A    between atoms: _314  and  _316
REMARK  125  A    between atoms: _316  and  _317
REMARK  126  A    between atoms: _316  and  _319
REMARK  127  A    between atoms: _319  and  _320
REMARK  128  A    between atoms: _323  and  _325
REMARK  129  A    between atoms: _325  and  _326
REMARK  130  A    between atoms: _325  and  _328
REMARK  131  A    between atoms: _331  and  _333
REMARK  132  A    between atoms: _333  and  _334
REMARK  133  A    between atoms: _336  and  _338
REMARK  134  A    between atoms: _338  and  _339
REMARK  135  A    between atoms: _338  and  _341
REMARK  136  A    between atoms: _341  and  _342
REMARK  137  A    between atoms: _342  and  _343
REMARK  138  A    between atoms: _343  and  _344
REMARK  139  A    between atoms: _344  and  _345
REMARK  140  A    between atoms: _349  and  _351
REMARK  141  A    between atoms: _351  and  _352
REMARK  142  A    between atoms: _351  and  _354
REMARK  143  A    between atoms: _354  and  _355
REMARK  144  A    between atoms: _358  and  _360
REMARK  145  A    between atoms: _360  and  _361
REMARK  146  A    between atoms: _364  and  _366
REMARK  147  A    between atoms: _366  and  _367
REMARK  148  A    between atoms: _369  and  _371
REMARK  149  A    between atoms: _371  and  _372
REMARK  150  A    between atoms: _371  and  _374
REMARK  151  A    between atoms: _374  and  _375
REMARK  152  A    between atoms: _378  and  _380
REMARK  153  A    between atoms: _380  and  _381
REMARK  154  A    between atoms: _380  and  _383
REMARK  155  A    between atoms: _383  and  _384
REMARK  156  A    between atoms: _387  and  _389
REMARK  157  A    between atoms: _389  and  _390
REMARK  158  A    between atoms: _393  and  _395
REMARK  159  A    between atoms: _395  and  _396
REMARK  160  A    between atoms: _395  and  _398
REMARK  161  A    between atoms: _398  and  _399
REMARK  162  A    between atoms: _399  and  _400
REMARK  163  A    between atoms: _403  and  _405
REMARK  164  A    between atoms: _405  and  _406
REMARK  165  A    between atoms: _405  and  _408
REMARK  166  A    between atoms: _411  and  _413
REMARK  167  A    between atoms: _413  and  _414
REMARK  168  A    between atoms: _413  and  _416
REMARK  169  A    between atoms: _416  and  _417
REMARK  170  A    between atoms: _420  and  _422
REMARK  171  A    between atoms: _422  and  _423
REMARK  172  A    between atoms: _425  and  _427
REMARK  173  A    between atoms: _427  and  _428
REMARK  174  A    between atoms: _427  and  _430
REMARK  175  A    between atoms: _433  and  _435
REMARK  176  A    between atoms: _435  and  _436
REMARK  177  A    between atoms: _438  and  _440
REMARK  178  A    between atoms: _440  and  _441
REMARK  179  A    between atoms: _440  and  _443
REMARK  180  A    between atoms: _443  and  _444
REMARK  181  A    between atoms: _447  and  _449
REMARK  182  A    between atoms: _449  and  _450
REMARK  183  A    between atoms: _449  and  _452
REMARK  184  A    between atoms: _452  and  _453
REMARK  185  A    between atoms: _458  and  _460
REMARK  186  A    between atoms: _460  and  _461
REMARK  187  A    between atoms: _460  and  _463
REMARK  188  A    between atoms: _466  and  _468
REMARK  189  A    between atoms: _468  and  _469
REMARK  190  A    between atoms: _468  and  _471
REMARK  191  A    between atoms: _471  and  _472
REMARK  192  A    between atoms: _472  and  _473
REMARK  193  A    between atoms: _478  and  _480
REMARK  194  A    between atoms: _480  and  _481
REMARK  195  A    between atoms: _485  and  _486
REMARK  196  A    between atoms: _491  and  _493
REMARK  197  A    between atoms: _493  and  _494
REMARK  198  A    between atoms: _493  and  _496
REMARK  199  A    between atoms: _496  and  _497
REMARK  200  A    between atoms: _497  and  _498
REMARK  201  A    between atoms: _501  and  _503
REMARK  202  A    between atoms: _503  and  _504
REMARK  203  A    between atoms: _503  and  _506
REMARK  204  A    between atoms: _509  and  _511
REMARK  205  A    between atoms: _511  and  _512
REMARK  206  A    between atoms: _511  and  _514
REMARK  207  A    between atoms: _514  and  _515
REMARK  208  A    between atoms: _519  and  _520
REMARK  209  A    between atoms: _525  and  _527
REMARK  210  A    between atoms: _527  and  _528
REMARK  211  A    between atoms: _527  and  _530
REMARK  212  A    between atoms: _530  and  _531
REMARK  213  A    between atoms: _534  and  _536
REMARK  214  A    between atoms: _536  and  _537
REMARK  215  A    between atoms: _540  and  _542
REMARK  216  A    between atoms: _542  and  _543
REMARK  217  A    between atoms: _542  and  _545
REMARK  218  A    between atoms: _545  and  _546
REMARK  219  A    between atoms: _549  and  _551
REMARK  220  A    between atoms: _551  and  _552
REMARK  221  A    between atoms: _551  and  _554
REMARK  222  A    between atoms: _554  and  _555
REMARK  223  A    between atoms: _557  and  _559
REMARK  224  A    between atoms: _559  and  _560
REMARK  225  A    between atoms: _562  and  _564
REMARK  226  A    between atoms: _564  and  _565
REMARK  227  A    between atoms: _564  and  _567
REMARK  228  A    between atoms: _567  and  _568
REMARK  229  A    between atoms: _571  and  _573
REMARK  230  A    between atoms: _573  and  _574
REMARK  231  A    between atoms: _573  and  _576
REMARK                            x       y       z     vdW  Elec       q    Type
REMARK                         _______ _______ _______ _____ _____    ______ ____
ROOT
ATOM      1  O   HOH     1     -10.597  -1.480   4.971  0.00  0.00    +0.000 OA
ENDROOT
TORSDOF 0
REMARK  Name = ../refined-set-2016/4xu2/4xu2_pocket.pdb
REMARK  231 active torsions:
REMARK  status: ('A' for Active; 'I' for Inactive)
REMARK    1  A    between atoms: _1  and  _3
REMARK    2  A    between atoms: _3  and  _4
REMARK    3  A    between atoms: _3  and  _6
REMARK    4  A    between atoms: _6  and  _7
REMARK    5  A    between atoms: _10  and  _12
REMARK    6  A    between atoms: _12  and  _13
REMARK    7  A    between atoms: _15  and  _17
REMARK    8  A    between atoms: _17  and  _18
REMARK    9  A    between atoms: _17  and  _20
REMARK   10  A    between atoms: _20  and  _21
REMARK   11  A    between atoms: _23  and  _25
REMARK   12  A    between atoms: _25  and  _26
REMARK   13  A    between atoms: _25  and  _28
REMARK   14  A    between atoms: _28  and  _29
REMARK   15  A    between atoms: _32  and  _34
REMARK   16  A    between atoms: _34  and  _35
REMARK   17  A    between atoms: _34  and  _37
REMARK   18  A    between atoms: _37  and  _38
REMARK   19  A    between atoms: _43  and  _45
REMARK   20  A    between atoms: _45  and  _46
REMARK   21  A    between atoms: _49  and  _51
REMARK   22  A    between atoms: _51  and  _52
REMARK   23  A    between atoms: _51  and  _54
REMARK   24  A    between atoms: _54  and  _55
REMARK   25  A    between atoms: _58  and  _60
REMARK   26  A    between atoms: _60  and  _61
REMARK   27  A    between atoms: _60  and  _63
REMARK   28  A    between atoms: _63  and  _64
REMARK   29  A    between atoms: _67  and  _69
REMARK   30  A    between atoms: _69  and  _70
REMARK   31  A    between atoms: _69  and  _72
REMARK   32  A    between atoms: _72  and  _73
REMARK   33  A    between atoms: _76  and  _78
REMARK   34  A    between atoms: _78  and  _79
REMARK   35  A    between atoms: _82  and  _84
REMARK   36  A    between atoms: _84  and  _85
REMARK   37  A    between atoms: _84  and  _87
REMARK   38  A    between atoms: _87  and  _88
REMARK   39  A    between atoms: _88  and  _89
REMARK   40  A    between atoms: _94  and  _96
REMARK   41  A    between atoms: _96  and  _97
REMARK   42  A    between atoms: _96  and  _99
REMARK   43  A    between atoms: _99  and  _100
REMARK   44  A    between atoms: _103  and  _105
REMARK   45  A    between atoms: _105  and  _106
REMARK   46  A    between atoms: _109  and  _111
REMARK   47  A    between atoms: _111  and  _112
REMARK   48  A    between atoms: _114  and  _116
REMARK   49  A    between atoms: _116  and  _117
REMARK   50  A    between atoms: _116  and  _119
REMARK   51  A    between atoms: _119  and  _120
REMARK   52  A    between atoms: _120  and  _121
REMARK   53  A    between atoms: _121  and  _122
REMARK   54  A    between atoms: _131  and  _133
REMARK   55  A    between atoms: _133  and  _134
REMARK   56  A    between atoms: _136  and  _138
REMARK   57  A    between atoms: _138  and  _139
REMARK   58  A    between atoms: _138  and  _141
REMARK   59  A    between atoms: _141  and  _142
REMARK   60  A    between atoms: _142  and  _143
REMARK   61  A    between atoms: _143  and  _144
REMARK   62  A    between atoms: _153  and  _155
REMARK   63  A    between atoms: _155  and  _156
REMARK   64  A    between atoms: _155  and  _158
REMARK   65  A    between atoms: _158  and  _159
REMARK   66  A    between atoms: _164  and  _166
REMARK   67  A    between atoms: _166  and  _167
REMARK   68  A    between atoms: _169  and  _171
REMARK   69  A    between atoms: _171  and  _172
REMARK   70  A    between atoms: _171  and  _174
REMARK   71  A    between atoms: _174  and  _175
REMARK   72  A    between atoms: _175  and  _176
REMARK   73  A    between atoms: _176  and  _177
REMARK   74  A    between atoms: _186  and  _188
REMARK   75  A    between atoms: _188  and  _189
REMARK   76  A    between atoms: _191  and  _193
REMARK   77  A    between atoms: _193  and  _194
REMARK   78  A    between atoms: _193  and  _196
REMARK   79  A    between atoms: _196  and  _197
REMARK   80  A    between atoms: _207  and  _209
REMARK   81  A    between atoms: _209  and  _210
REMARK   82  A    between atoms: _213  and  _215
REMARK   83  A    between atoms: _215  and  _216
REMARK   84  A    between atoms: _219  and  _221
REMARK   85  A    between atoms: _221  and  _222
REMARK   86  A    between atoms: _221  and  _224
REMARK   87  A    between atoms: _224  and  _225
REMARK   88  A    between atoms: _228  and  _230
REMARK   89  A    between atoms: _230  and  _231
REMARK   90  A    between atoms: _230  and  _233
REMARK   91  A    between atoms: _233  and  _234
REMARK   92  A    between atoms: _234  and  _235
REMARK   93  A    between atoms: _240  and  _242
REMARK   94  A    between atoms: _242  and  _243
REMARK   95  A    between atoms: _242  and  _245
REMARK   96  A    between atoms: _245  and  _246
REMARK   97  A    between atoms: _249  and  _251
REMARK   98  A    between atoms: _251  and  _252
REMARK   99  A    between atoms: _251  and  _254
REMARK  100  A    between atoms: _254  and  _255
REMARK  101  A    between atoms: _258  and  _260
REMARK  102  A    between atoms: _260  and  _261
REMARK  103  A    between atoms: _260  and  _263
REMARK  104  A    between atoms: _263  and  _264
REMARK  105  A    between atoms: _267  and  _269
REMARK  106  A    between atoms: _269  and  _270
REMARK  107  A    between atoms: _269  and  _272
REMARK  108  A    between atoms: _272  and  _273
REMARK  109  A    between atoms: _275  and  _277
REMARK  110  A    between atoms: _277  and  _278
REMARK  111  A    between atoms: _277  and  _280
REMARK  112  A    between atoms: _283  and  _285
REMARK  113  A    between atoms: _285  and  _286
REMARK  114  A    between atoms: _285  and  _288
REMARK  115  A    between atoms: _288  and  _289
REMARK  116  A    between atoms: _289  and  _290
REMARK  117  A    between atoms: _290  and  _291
REMARK  118  A    between atoms: _291  and  _292
REMARK  119  A    between atoms: _297  and  _298
REMARK  120  A    between atoms: _303  and  _305
REMARK  121  A    between atoms: _305  and  _306
REMARK  122  A    between atoms: _305  and  _308
REMARK  123  A    between atoms: _308  and  _309
REMARK  124  A    between atoms: _314  and  _316
REMARK  125  A    between atoms: _316  and  _317
REMARK  126  A    between atoms: _316  and  _319
REMARK  127  A    between atoms: _319  and  _320
REMARK  128  A    between atoms: _323  and  _325
REMARK  129  A    between atoms: _325  and  _326
REMARK  130  A    between atoms: _325  and  _328
REMARK  131  A    between atoms: _331  and  _333
REMARK  132  A    between atoms: _333  and  _334
REMARK  133  A    between atoms: _336  and  _338
REMARK  134  A    between atoms: _338  and  _339
REMARK  135  A    between atoms: _338  and  _341
REMARK  136  A    between atoms: _341  and  _342
REMARK  137  A    between atoms: _342  and  _343
REMARK  138  A    between atoms: _343  and  _344
REMARK  139  A    between atoms: _344  and  _345
REMARK  140  A    between atoms: _349  and  _351
REMARK  141  A    between atoms: _351  and  _352
REMARK  142  A    between atoms: _351  and  _354
REMARK  143  A    between atoms: _354  and  _355
REMARK  144  A    between atoms: _358  and  _360
REMARK  145  A    between atoms: _360  and  _361
REMARK  146  A    between atoms: _364  and  _366
REMARK  147  A    between atoms: _366  and  _367
REMARK  148  A    between atoms: _369  and  _371
REMARK  149  A    between atoms: _371  and  _372
REMARK  150  A    between atoms: _371  and  _374
REMARK  151  A    between atoms: _374  and  _375
REMARK  152  A    between atoms: _378  and  _380
REMARK  153  A    between atoms: _380  and  _381
REMARK  154  A    between atoms: _380  and  _383
REMARK  155  A    between atoms: _383  and  _384
REMARK  156  A    between atoms: _387  and  _389
REMARK  157  A    between atoms: _389  and  _390
REMARK  158  A    between atoms: _393  and  _395
REMARK  159  A    between atoms: _395  and  _396
REMARK  160  A    between atoms: _395  and  _398
REMARK  161  A    between atoms: _398  and  _399
REMARK  162  A    between atoms: _399  and  _400
REMARK  163  A    between atoms: _403  and  _405
REMARK  164  A    between atoms: _405  and  _406
REMARK  165  A    between atoms: _405  and  _408
REMARK  166  A    between atoms: _411  and  _413
REMARK  167  A    between atoms: _413  and  _414
REMARK  168  A    between atoms: _413  and  _416
REMARK  169  A    between atoms: _416  and  _417
REMARK  170  A    between atoms: _420  and  _422
REMARK  171  A    between atoms: _422  and  _423
REMARK  172  A    between atoms: _425  and  _427
REMARK  173  A    between atoms: _427  and  _428
REMARK  174  A    between atoms: _427  and  _430
REMARK  175  A    between atoms: _433  and  _435
REMARK  176  A    between atoms: _435  and  _436
REMARK  177  A    between atoms: _438  and  _440
REMARK  178  A    between atoms: _440  and  _441
REMARK  179  A    between atoms: _440  and  _443
REMARK  180  A    between atoms: _443  and  _444
REMARK  181  A    between atoms: _447  and  _449
REMARK  182  A    between atoms: _449  and  _450
REMARK  183  A    between atoms: _449  and  _452
REMARK  184  A    between atoms: _452  and  _453
REMARK  185  A    between atoms: _458  and  _460
REMARK  186  A    between atoms: _460  and  _461
REMARK  187  A    between atoms: _460  and  _463
REMARK  188  A    between atoms: _466  and  _468
REMARK  189  A    between atoms: _468  and  _469
REMARK  190  A    between atoms: _468  and  _471
REMARK  191  A    between atoms: _471  and  _472
REMARK  192  A    between atoms: _472  and  _473
REMARK  193  A    between atoms: _478  and  _480
REMARK  194  A    between atoms: _480  and  _481
REMARK  195  A    between atoms: _485  and  _486
REMARK  196  A    between atoms: _491  and  _493
REMARK  197  A    between atoms: _493  and  _494
REMARK  198  A    between atoms: _493  and  _496
REMARK  199  A    between atoms: _496  and  _497
REMARK  200  A    between atoms: _497  and  _498
REMARK  201  A    between atoms: _501  and  _503
REMARK  202  A    between atoms: _503  and  _504
REMARK  203  A    between atoms: _503  and  _506
REMARK  204  A    between atoms: _509  and  _511
REMARK  205  A    between atoms: _511  and  _512
REMARK  206  A    between atoms: _511  and  _514
REMARK  207  A    between atoms: _514  and  _515
REMARK  208  A    between atoms: _519  and  _520
REMARK  209  A    between atoms: _525  and  _527
REMARK  210  A    between atoms: _527  and  _528
REMARK  211  A    between atoms: _527  and  _530
REMARK  212  A    between atoms: _530  and  _531
REMARK  213  A    between atoms: _534  and  _536
REMARK  214  A    between atoms: _536  and  _537
REMARK  215  A    between atoms: _540  and  _542
REMARK  216  A    between atoms: _542  and  _543
REMARK  217  A    between atoms: _542  and  _545
REMARK  218  A    between atoms: _545  and  _546
REMARK  219  A    between atoms: _549  and  _551
REMARK  220  A    between atoms: _551  and  _552
REMARK  221  A    between atoms: _551  and  _554
REMARK  222  A    between atoms: _554  and  _555
REMARK  223  A    between atoms: _557  and  _559
REMARK  224  A    between atoms: _559  and  _560
REMARK  225  A    between atoms: _562  and  _564
REMARK  226  A    between atoms: _564  and  _565
REMARK  227  A    between atoms: _564  and  _567
REMARK  228  A    between atoms: _567  and  _568
REMARK  229  A    between atoms: _571  and  _573
REMARK  230  A    between atoms: _573  and  _574
REMARK  231  A    between atoms: _573  and  _576
REMARK                            x       y       z     vdW  Elec       q    Type
REMARK                         _______ _______ _______ _____ _____    ______ ____
ROOT
ATOM      1  O   HOH     1     -11.188   1.933  15.929  0.00  0.00    +0.000 OA
ENDROOT
TORSDOF 0
REMARK  Name = ../refined-set-2016/4xu2/4xu2_pocket.pdb
REMARK  231 active torsions:
REMARK  status: ('A' for Active; 'I' for Inactive)
REMARK    1  A    between atoms: _1  and  _3
REMARK    2  A    between atoms: _3  and  _4
REMARK    3  A    between atoms: _3  and  _6
REMARK    4  A    between atoms: _6  and  _7
REMARK    5  A    between atoms: _10  and  _12
REMARK    6  A    between atoms: _12  and  _13
REMARK    7  A    between atoms: _15  and  _17
REMARK    8  A    between atoms: _17  and  _18
REMARK    9  A    between atoms: _17  and  _20
REMARK   10  A    between atoms: _20  and  _21
REMARK   11  A    between atoms: _23  and  _25
REMARK   12  A    between atoms: _25  and  _26
REMARK   13  A    between atoms: _25  and  _28
REMARK   14  A    between atoms: _28  and  _29
REMARK   15  A    between atoms: _32  and  _34
REMARK   16  A    between atoms: _34  and  _35
REMARK   17  A    between atoms: _34  and  _37
REMARK   18  A    between atoms: _37  and  _38
REMARK   19  A    between atoms: _43  and  _45
REMARK   20  A    between atoms: _45  and  _46
REMARK   21  A    between atoms: _49  and  _51
REMARK   22  A    between atoms: _51  and  _52
REMARK   23  A    between atoms: _51  and  _54
REMARK   24  A    between atoms: _54  and  _55
REMARK   25  A    between atoms: _58  and  _60
REMARK   26  A    between atoms: _60  and  _61
REMARK   27  A    between atoms: _60  and  _63
REMARK   28  A    between atoms: _63  and  _64
REMARK   29  A    between atoms: _67  and  _69
REMARK   30  A    between atoms: _69  and  _70
REMARK   31  A    between atoms: _69  and  _72
REMARK   32  A    between atoms: _72  and  _73
REMARK   33  A    between atoms: _76  and  _78
REMARK   34  A    between atoms: _78  and  _79
REMARK   35  A    between atoms: _82  and  _84
REMARK   36  A    between atoms: _84  and  _85
REMARK   37  A    between atoms: _84  and  _87
REMARK   38  A    between atoms: _87  and  _88
REMARK   39  A    between atoms: _88  and  _89
REMARK   40  A    between atoms: _94  and  _96
REMARK   41  A    between atoms: _96  and  _97
REMARK   42  A    between atoms: _96  and  _99
REMARK   43  A    between atoms: _99  and  _100
REMARK   44  A    between atoms: _103  and  _105
REMARK   45  A    between atoms: _105  and  _106
REMARK   46  A    between atoms: _109  and  _111
REMARK   47  A    between atoms: _111  and  _112
REMARK   48  A    between atoms: _114  and  _116
REMARK   49  A    between atoms: _116  and  _117
REMARK   50  A    between atoms: _116  and  _119
REMARK   51  A    between atoms: _119  and  _120
REMARK   52  A    between atoms: _120  and  _121
REMARK   53  A    between atoms: _121  and  _122
REMARK   54  A    between atoms: _131  and  _133
REMARK   55  A    between atoms: _133  and  _134
REMARK   56  A    between atoms: _136  and  _138
REMARK   57  A    between atoms: _138  and  _139
REMARK   58  A    between atoms: _138  and  _141
REMARK   59  A    between atoms: _141  and  _142
REMARK   60  A    between atoms: _142  and  _143
REMARK   61  A    between atoms: _143  and  _144
REMARK   62  A    between atoms: _153  and  _155
REMARK   63  A    between atoms: _155  and  _156
REMARK   64  A    between atoms: _155  and  _158
REMARK   65  A    between atoms: _158  and  _159
REMARK   66  A    between atoms: _164  and  _166
REMARK   67  A    between atoms: _166  and  _167
REMARK   68  A    between atoms: _169  and  _171
REMARK   69  A    between atoms: _171  and  _172
REMARK   70  A    between atoms: _171  and  _174
REMARK   71  A    between atoms: _174  and  _175
REMARK   72  A    between atoms: _175  and  _176
REMARK   73  A    between atoms: _176  and  _177
REMARK   74  A    between atoms: _186  and  _188
REMARK   75  A    between atoms: _188  and  _189
REMARK   76  A    between atoms: _191  and  _193
REMARK   77  A    between atoms: _193  and  _194
REMARK   78  A    between atoms: _193  and  _196
REMARK   79  A    between atoms: _196  and  _197
REMARK   80  A    between atoms: _207  and  _209
REMARK   81  A    between atoms: _209  and  _210
REMARK   82  A    between atoms: _213  and  _215
REMARK   83  A    between atoms: _215  and  _216
REMARK   84  A    between atoms: _219  and  _221
REMARK   85  A    between atoms: _221  and  _222
REMARK   86  A    between atoms: _221  and  _224
REMARK   87  A    between atoms: _224  and  _225
REMARK   88  A    between atoms: _228  and  _230
REMARK   89  A    between atoms: _230  and  _231
REMARK   90  A    between atoms: _230  and  _233
REMARK   91  A    between atoms: _233  and  _234
REMARK   92  A    between atoms: _234  and  _235
REMARK   93  A    between atoms: _240  and  _242
REMARK   94  A    between atoms: _242  and  _243
REMARK   95  A    between atoms: _242  and  _245
REMARK   96  A    between atoms: _245  and  _246
REMARK   97  A    between atoms: _249  and  _251
REMARK   98  A    between atoms: _251  and  _252
REMARK   99  A    between atoms: _251  and  _254
REMARK  100  A    between atoms: _254  and  _255
REMARK  101  A    between atoms: _258  and  _260
REMARK  102  A    between atoms: _260  and  _261
REMARK  103  A    between atoms: _260  and  _263
REMARK  104  A    between atoms: _263  and  _264
REMARK  105  A    between atoms: _267  and  _269
REMARK  106  A    between atoms: _269  and  _270
REMARK  107  A    between atoms: _269  and  _272
REMARK  108  A    between atoms: _272  and  _273
REMARK  109  A    between atoms: _275  and  _277
REMARK  110  A    between atoms: _277  and  _278
REMARK  111  A    between atoms: _277  and  _280
REMARK  112  A    between atoms: _283  and  _285
REMARK  113  A    between atoms: _285  and  _286
REMARK  114  A    between atoms: _285  and  _288
REMARK  115  A    between atoms: _288  and  _289
REMARK  116  A    between atoms: _289  and  _290
REMARK  117  A    between atoms: _290  and  _291
REMARK  118  A    between atoms: _291  and  _292
REMARK  119  A    between atoms: _297  and  _298
REMARK  120  A    between atoms: _303  and  _305
REMARK  121  A    between atoms: _305  and  _306
REMARK  122  A    between atoms: _305  and  _308
REMARK  123  A    between atoms: _308  and  _309
REMARK  124  A    between atoms: _314  and  _316
REMARK  125  A    between atoms: _316  and  _317
REMARK  126  A    between atoms: _316  and  _319
REMARK  127  A    between atoms: _319  and  _320
REMARK  128  A    between atoms: _323  and  _325
REMARK  129  A    between atoms: _325  and  _326
REMARK  130  A    between atoms: _325  and  _328
REMARK  131  A    between atoms: _331  and  _333
REMARK  132  A    between atoms: _333  and  _334
REMARK  133  A    between atoms: _336  and  _338
REMARK  134  A    between atoms: _338  and  _339
REMARK  135  A    between atoms: _338  and  _341
REMARK  136  A    between atoms: _341  and  _342
REMARK  137  A    between atoms: _342  and  _343
REMARK  138  A    between atoms: _343  and  _344
REMARK  139  A    between atoms: _344  and  _345
REMARK  140  A    between atoms: _349  and  _351
REMARK  141  A    between atoms: _351  and  _352
REMARK  142  A    between atoms: _351  and  _354
REMARK  143  A    between atoms: _354  and  _355
REMARK  144  A    between atoms: _358  and  _360
REMARK  145  A    between atoms: _360  and  _361
REMARK  146  A    between atoms: _364  and  _366
REMARK  147  A    between atoms: _366  and  _367
REMARK  148  A    between atoms: _369  and  _371
REMARK  149  A    between atoms: _371  and  _372
REMARK  150  A    between atoms: _371  and  _374
REMARK  151  A    between atoms: _374  and  _375
REMARK  152  A    between atoms: _378  and  _380
REMARK  153  A    between atoms: _380  and  _381
REMARK  154  A    between atoms: _380  and  _383
REMARK  155  A    between atoms: _383  and  _384
REMARK  156  A    between atoms: _387  and  _389
REMARK  157  A    between atoms: _389  and  _390
REMARK  158  A    between atoms: _393  and  _395
REMARK  159  A    between atoms: _395  and  _396
REMARK  160  A    between atoms: _395  and  _398
REMARK  161  A    between atoms: _398  and  _399
REMARK  162  A    between atoms: _399  and  _400
REMARK  163  A    between atoms: _403  and  _405
REMARK  164  A    between atoms: _405  and  _406
REMARK  165  A    between atoms: _405  and  _408
REMARK  166  A    between atoms: _411  and  _413
REMARK  167  A    between atoms: _413  and  _414
REMARK  168  A    between atoms: _413  and  _416
REMARK  169  A    between atoms: _416  and  _417
REMARK  170  A    between atoms: _420  and  _422
REMARK  171  A    between atoms: _422  and  _423
REMARK  172  A    between atoms: _425  and  _427
REMARK  173  A    between atoms: _427  and  _428
REMARK  174  A    between atoms: _427  and  _430
REMARK  175  A    between atoms: _433  and  _435
REMARK  176  A    between atoms: _435  and  _436
REMARK  177  A    between atoms: _438  and  _440
REMARK  178  A    between atoms: _440  and  _441
REMARK  179  A    between atoms: _440  and  _443
REMARK  180  A    between atoms: _443  and  _444
REMARK  181  A    between atoms: _447  and  _449
REMARK  182  A    between atoms: _449  and  _450
REMARK  183  A    between atoms: _449  and  _452
REMARK  184  A    between atoms: _452  and  _453
REMARK  185  A    between atoms: _458  and  _460
REMARK  186  A    between atoms: _460  and  _461
REMARK  187  A    between atoms: _460  and  _463
REMARK  188  A    between atoms: _466  and  _468
REMARK  189  A    between atoms: _468  and  _469
REMARK  190  A    between atoms: _468  and  _471
REMARK  191  A    between atoms: _471  and  _472
REMARK  192  A    between atoms: _472  and  _473
REMARK  193  A    between atoms: _478  and  _480
REMARK  194  A    between atoms: _480  and  _481
REMARK  195  A    between atoms: _485  and  _486
REMARK  196  A    between atoms: _491  and  _493
REMARK  197  A    between atoms: _493  and  _494
REMARK  198  A    between atoms: _493  and  _496
REMARK  199  A    between atoms: _496  and  _497
REMARK  200  A    between atoms: _497  and  _498
REMARK  201  A    between atoms: _501  and  _503
REMARK  202  A    between atoms: _503  and  _504
REMARK  203  A    between atoms: _503  and  _506
REMARK  204  A    between atoms: _509  and  _511
REMARK  205  A    between atoms: _511  and  _512
REMARK  206  A    between atoms: _511  and  _514
REMARK  207  A    between atoms: _514  and  _515
REMARK  208  A    between atoms: _519  and  _520
REMARK  209  A    between atoms: _525  and  _527
REMARK  210  A    between atoms: _527  and  _528
REMARK  211  A    between atoms: _527  and  _530
REMARK  212  A    between atoms: _530  and  _531
REMARK  213  A    between atoms: _534  and  _536
REMARK  214  A    between atoms: _536  and  _537
REMARK  215  A    between atoms: _540  and  _542
REMARK  216  A    between atoms: _542  and  _543
REMARK  217  A    between atoms: _542  and  _545
REMARK  218  A    between atoms: _545  and  _546
REMARK  219  A    between atoms: _549  and  _551
REMARK  220  A    between atoms: _551  and  _552
REMARK  221  A    between atoms: _551  and  _554
REMARK  222  A    between atoms: _554  and  _555
REMARK  223  A    between atoms: _557  and  _559
REMARK  224  A    between atoms: _559  and  _560
REMARK  225  A    between atoms: _562  and  _564
REMARK  226  A    between atoms: _564  and  _565
REMARK  227  A    between atoms: _564  and  _567
REMARK  228  A    between atoms: _567  and  _568
REMARK  229  A    between atoms: _571  and  _573
REMARK  230  A    between atoms: _573  and  _574
REMARK  231  A    between atoms: _573  and  _576
REMARK                            x       y       z     vdW  Elec       q    Type
REMARK                         _______ _______ _______ _____ _____    ______ ____
ROOT
ATOM      1  O   HOH     1      -6.022  -3.111   2.846  0.00  0.00    +0.000 OA
ENDROOT
TORSDOF 0
REMARK  Name = ../refined-set-2016/4xu2/4xu2_pocket.pdb
REMARK  231 active torsions:
REMARK  status: ('A' for Active; 'I' for Inactive)
REMARK    1  A    between atoms: _1  and  _3
REMARK    2  A    between atoms: _3  and  _4
REMARK    3  A    between atoms: _3  and  _6
REMARK    4  A    between atoms: _6  and  _7
REMARK    5  A    between atoms: _10  and  _12
REMARK    6  A    between atoms: _12  and  _13
REMARK    7  A    between atoms: _15  and  _17
REMARK    8  A    between atoms: _17  and  _18
REMARK    9  A    between atoms: _17  and  _20
REMARK   10  A    between atoms: _20  and  _21
REMARK   11  A    between atoms: _23  and  _25
REMARK   12  A    between atoms: _25  and  _26
REMARK   13  A    between atoms: _25  and  _28
REMARK   14  A    between atoms: _28  and  _29
REMARK   15  A    between atoms: _32  and  _34
REMARK   16  A    between atoms: _34  and  _35
REMARK   17  A    between atoms: _34  and  _37
REMARK   18  A    between atoms: _37  and  _38
REMARK   19  A    between atoms: _43  and  _45
REMARK   20  A    between atoms: _45  and  _46
REMARK   21  A    between atoms: _49  and  _51
REMARK   22  A    between atoms: _51  and  _52
REMARK   23  A    between atoms: _51  and  _54
REMARK   24  A    between atoms: _54  and  _55
REMARK   25  A    between atoms: _58  and  _60
REMARK   26  A    between atoms: _60  and  _61
REMARK   27  A    between atoms: _60  and  _63
REMARK   28  A    between atoms: _63  and  _64
REMARK   29  A    between atoms: _67  and  _69
REMARK   30  A    between atoms: _69  and  _70
REMARK   31  A    between atoms: _69  and  _72
REMARK   32  A    between atoms: _72  and  _73
REMARK   33  A    between atoms: _76  and  _78
REMARK   34  A    between atoms: _78  and  _79
REMARK   35  A    between atoms: _82  and  _84
REMARK   36  A    between atoms: _84  and  _85
REMARK   37  A    between atoms: _84  and  _87
REMARK   38  A    between atoms: _87  and  _88
REMARK   39  A    between atoms: _88  and  _89
REMARK   40  A    between atoms: _94  and  _96
REMARK   41  A    between atoms: _96  and  _97
REMARK   42  A    between atoms: _96  and  _99
REMARK   43  A    between atoms: _99  and  _100
REMARK   44  A    between atoms: _103  and  _105
REMARK   45  A    between atoms: _105  and  _106
REMARK   46  A    between atoms: _109  and  _111
REMARK   47  A    between atoms: _111  and  _112
REMARK   48  A    between atoms: _114  and  _116
REMARK   49  A    between atoms: _116  and  _117
REMARK   50  A    between atoms: _116  and  _119
REMARK   51  A    between atoms: _119  and  _120
REMARK   52  A    between atoms: _120  and  _121
REMARK   53  A    between atoms: _121  and  _122
REMARK   54  A    between atoms: _131  and  _133
REMARK   55  A    between atoms: _133  and  _134
REMARK   56  A    between atoms: _136  and  _138
REMARK   57  A    between atoms: _138  and  _139
REMARK   58  A    between atoms: _138  and  _141
REMARK   59  A    between atoms: _141  and  _142
REMARK   60  A    between atoms: _142  and  _143
REMARK   61  A    between atoms: _143  and  _144
REMARK   62  A    between atoms: _153  and  _155
REMARK   63  A    between atoms: _155  and  _156
REMARK   64  A    between atoms: _155  and  _158
REMARK   65  A    between atoms: _158  and  _159
REMARK   66  A    between atoms: _164  and  _166
REMARK   67  A    between atoms: _166  and  _167
REMARK   68  A    between atoms: _169  and  _171
REMARK   69  A    between atoms: _171  and  _172
REMARK   70  A    between atoms: _171  and  _174
REMARK   71  A    between atoms: _174  and  _175
REMARK   72  A    between atoms: _175  and  _176
REMARK   73  A    between atoms: _176  and  _177
REMARK   74  A    between atoms: _186  and  _188
REMARK   75  A    between atoms: _188  and  _189
REMARK   76  A    between atoms: _191  and  _193
REMARK   77  A    between atoms: _193  and  _194
REMARK   78  A    between atoms: _193  and  _196
REMARK   79  A    between atoms: _196  and  _197
REMARK   80  A    between atoms: _207  and  _209
REMARK   81  A    between atoms: _209  and  _210
REMARK   82  A    between atoms: _213  and  _215
REMARK   83  A    between atoms: _215  and  _216
REMARK   84  A    between atoms: _219  and  _221
REMARK   85  A    between atoms: _221  and  _222
REMARK   86  A    between atoms: _221  and  _224
REMARK   87  A    between atoms: _224  and  _225
REMARK   88  A    between atoms: _228  and  _230
REMARK   89  A    between atoms: _230  and  _231
REMARK   90  A    between atoms: _230  and  _233
REMARK   91  A    between atoms: _233  and  _234
REMARK   92  A    between atoms: _234  and  _235
REMARK   93  A    between atoms: _240  and  _242
REMARK   94  A    between atoms: _242  and  _243
REMARK   95  A    between atoms: _242  and  _245
REMARK   96  A    between atoms: _245  and  _246
REMARK   97  A    between atoms: _249  and  _251
REMARK   98  A    between atoms: _251  and  _252
REMARK   99  A    between atoms: _251  and  _254
REMARK  100  A    between atoms: _254  and  _255
REMARK  101  A    between atoms: _258  and  _260
REMARK  102  A    between atoms: _260  and  _261
REMARK  103  A    between atoms: _260  and  _263
REMARK  104  A    between atoms: _263  and  _264
REMARK  105  A    between atoms: _267  and  _269
REMARK  106  A    between atoms: _269  and  _270
REMARK  107  A    between atoms: _269  and  _272
REMARK  108  A    between atoms: _272  and  _273
REMARK  109  A    between atoms: _275  and  _277
REMARK  110  A    between atoms: _277  and  _278
REMARK  111  A    between atoms: _277  and  _280
REMARK  112  A    between atoms: _283  and  _285
REMARK  113  A    between atoms: _285  and  _286
REMARK  114  A    between atoms: _285  and  _288
REMARK  115  A    between atoms: _288  and  _289
REMARK  116  A    between atoms: _289  and  _290
REMARK  117  A    between atoms: _290  and  _291
REMARK  118  A    between atoms: _291  and  _292
REMARK  119  A    between atoms: _297  and  _298
REMARK  120  A    between atoms: _303  and  _305
REMARK  121  A    between atoms: _305  and  _306
REMARK  122  A    between atoms: _305  and  _308
REMARK  123  A    between atoms: _308  and  _309
REMARK  124  A    between atoms: _314  and  _316
REMARK  125  A    between atoms: _316  and  _317
REMARK  126  A    between atoms: _316  and  _319
REMARK  127  A    between atoms: _319  and  _320
REMARK  128  A    between atoms: _323  and  _325
REMARK  129  A    between atoms: _325  and  _326
REMARK  130  A    between atoms: _325  and  _328
REMARK  131  A    between atoms: _331  and  _333
REMARK  132  A    between atoms: _333  and  _334
REMARK  133  A    between atoms: _336  and  _338
REMARK  134  A    between atoms: _338  and  _339
REMARK  135  A    between atoms: _338  and  _341
REMARK  136  A    between atoms: _341  and  _342
REMARK  137  A    between atoms: _342  and  _343
REMARK  138  A    between atoms: _343  and  _344
REMARK  139  A    between atoms: _344  and  _345
REMARK  140  A    between atoms: _349  and  _351
REMARK  141  A    between atoms: _351  and  _352
REMARK  142  A    between atoms: _351  and  _354
REMARK  143  A    between atoms: _354  and  _355
REMARK  144  A    between atoms: _358  and  _360
REMARK  145  A    between atoms: _360  and  _361
REMARK  146  A    between atoms: _364  and  _366
REMARK  147  A    between atoms: _366  and  _367
REMARK  148  A    between atoms: _369  and  _371
REMARK  149  A    between atoms: _371  and  _372
REMARK  150  A    between atoms: _371  and  _374
REMARK  151  A    between atoms: _374  and  _375
REMARK  152  A    between atoms: _378  and  _380
REMARK  153  A    between atoms: _380  and  _381
REMARK  154  A    between atoms: _380  and  _383
REMARK  155  A    between atoms: _383  and  _384
REMARK  156  A    between atoms: _387  and  _389
REMARK  157  A    between atoms: _389  and  _390
REMARK  158  A    between atoms: _393  and  _395
REMARK  159  A    between atoms: _395  and  _396
REMARK  160  A    between atoms: _395  and  _398
REMARK  161  A    between atoms: _398  and  _399
REMARK  162  A    between atoms: _399  and  _400
REMARK  163  A    between atoms: _403  and  _405
REMARK  164  A    between atoms: _405  and  _406
REMARK  165  A    between atoms: _405  and  _408
REMARK  166  A    between atoms: _411  and  _413
REMARK  167  A    between atoms: _413  and  _414
REMARK  168  A    between atoms: _413  and  _416
REMARK  169  A    between atoms: _416  and  _417
REMARK  170  A    between atoms: _420  and  _422
REMARK  171  A    between atoms: _422  and  _423
REMARK  172  A    between atoms: _425  and  _427
REMARK  173  A    between atoms: _427  and  _428
REMARK  174  A    between atoms: _427  and  _430
REMARK  175  A    between atoms: _433  and  _435
REMARK  176  A    between atoms: _435  and  _436
REMARK  177  A    between atoms: _438  and  _440
REMARK  178  A    between atoms: _440  and  _441
REMARK  179  A    between atoms: _440  and  _443
REMARK  180  A    between atoms: _443  and  _444
REMARK  181  A    between atoms: _447  and  _449
REMARK  182  A    between atoms: _449  and  _450
REMARK  183  A    between atoms: _449  and  _452
REMARK  184  A    between atoms: _452  and  _453
REMARK  185  A    between atoms: _458  and  _460
REMARK  186  A    between atoms: _460  and  _461
REMARK  187  A    between atoms: _460  and  _463
REMARK  188  A    between atoms: _466  and  _468
REMARK  189  A    between atoms: _468  and  _469
REMARK  190  A    between atoms: _468  and  _471
REMARK  191  A    between atoms: _471  and  _472
REMARK  192  A    between atoms: _472  and  _473
REMARK  193  A    between atoms: _478  and  _480
REMARK  194  A    between atoms: _480  and  _481
REMARK  195  A    between atoms: _485  and  _486
REMARK  196  A    between atoms: _491  and  _493
REMARK  197  A    between atoms: _493  and  _494
REMARK  198  A    between atoms: _493  and  _496
REMARK  199  A    between atoms: _496  and  _497
REMARK  200  A    between atoms: _497  and  _498
REMARK  201  A    between atoms: _501  and  _503
REMARK  202  A    between atoms: _503  and  _504
REMARK  203  A    between atoms: _503  and  _506
REMARK  204  A    between atoms: _509  and  _511
REMARK  205  A    between atoms: _511  and  _512
REMARK  206  A    between atoms: _511  and  _514
REMARK  207  A    between atoms: _514  and  _515
REMARK  208  A    between atoms: _519  and  _520
REMARK  209  A    between atoms: _525  and  _527
REMARK  210  A    between atoms: _527  and  _528
REMARK  211  A    between atoms: _527  and  _530
REMARK  212  A    between atoms: _530  and  _531
REMARK  213  A    between atoms: _534  and  _536
REMARK  214  A    between atoms: _536  and  _537
REMARK  215  A    between atoms: _540  and  _542
REMARK  216  A    between atoms: _542  and  _543
REMARK  217  A    between atoms: _542  and  _545
REMARK  218  A    between atoms: _545  and  _546
REMARK  219  A    between atoms: _549  and  _551
REMARK  220  A    between atoms: _551  and  _552
REMARK  221  A    between atoms: _551  and  _554
REMARK  222  A    between atoms: _554  and  _555
REMARK  223  A    between atoms: _557  and  _559
REMARK  224  A    between atoms: _559  and  _560
REMARK  225  A    between atoms: _562  and  _564
REMARK  226  A    between atoms: _564  and  _565
REMARK  227  A    between atoms: _564  and  _567
REMARK  228  A    between atoms: _567  and  _568
REMARK  229  A    between atoms: _571  and  _573
REMARK  230  A    between atoms: _573  and  _574
REMARK  231  A    between atoms: _573  and  _576
REMARK                            x       y       z     vdW  Elec       q    Type
REMARK                         _______ _______ _______ _____ _____    ______ ____
ROOT
ATOM      1  O   HOH     1      -2.661   1.302   5.282  0.00  0.00    +0.000 OA
ENDROOT
TORSDOF 0
REMARK  Name = ../refined-set-2016/4xu2/4xu2_pocket.pdb
REMARK  231 active torsions:
REMARK  status: ('A' for Active; 'I' for Inactive)
REMARK    1  A    between atoms: _1  and  _3
REMARK    2  A    between atoms: _3  and  _4
REMARK    3  A    between atoms: _3  and  _6
REMARK    4  A    between atoms: _6  and  _7
REMARK    5  A    between atoms: _10  and  _12
REMARK    6  A    between atoms: _12  and  _13
REMARK    7  A    between atoms: _15  and  _17
REMARK    8  A    between atoms: _17  and  _18
REMARK    9  A    between atoms: _17  and  _20
REMARK   10  A    between atoms: _20  and  _21
REMARK   11  A    between atoms: _23  and  _25
REMARK   12  A    between atoms: _25  and  _26
REMARK   13  A    between atoms: _25  and  _28
REMARK   14  A    between atoms: _28  and  _29
REMARK   15  A    between atoms: _32  and  _34
REMARK   16  A    between atoms: _34  and  _35
REMARK   17  A    between atoms: _34  and  _37
REMARK   18  A    between atoms: _37  and  _38
REMARK   19  A    between atoms: _43  and  _45
REMARK   20  A    between atoms: _45  and  _46
REMARK   21  A    between atoms: _49  and  _51
REMARK   22  A    between atoms: _51  and  _52
REMARK   23  A    between atoms: _51  and  _54
REMARK   24  A    between atoms: _54  and  _55
REMARK   25  A    between atoms: _58  and  _60
REMARK   26  A    between atoms: _60  and  _61
REMARK   27  A    between atoms: _60  and  _63
REMARK   28  A    between atoms: _63  and  _64
REMARK   29  A    between atoms: _67  and  _69
REMARK   30  A    between atoms: _69  and  _70
REMARK   31  A    between atoms: _69  and  _72
REMARK   32  A    between atoms: _72  and  _73
REMARK   33  A    between atoms: _76  and  _78
REMARK   34  A    between atoms: _78  and  _79
REMARK   35  A    between atoms: _82  and  _84
REMARK   36  A    between atoms: _84  and  _85
REMARK   37  A    between atoms: _84  and  _87
REMARK   38  A    between atoms: _87  and  _88
REMARK   39  A    between atoms: _88  and  _89
REMARK   40  A    between atoms: _94  and  _96
REMARK   41  A    between atoms: _96  and  _97
REMARK   42  A    between atoms: _96  and  _99
REMARK   43  A    between atoms: _99  and  _100
REMARK   44  A    between atoms: _103  and  _105
REMARK   45  A    between atoms: _105  and  _106
REMARK   46  A    between atoms: _109  and  _111
REMARK   47  A    between atoms: _111  and  _112
REMARK   48  A    between atoms: _114  and  _116
REMARK   49  A    between atoms: _116  and  _117
REMARK   50  A    between atoms: _116  and  _119
REMARK   51  A    between atoms: _119  and  _120
REMARK   52  A    between atoms: _120  and  _121
REMARK   53  A    between atoms: _121  and  _122
REMARK   54  A    between atoms: _131  and  _133
REMARK   55  A    between atoms: _133  and  _134
REMARK   56  A    between atoms: _136  and  _138
REMARK   57  A    between atoms: _138  and  _139
REMARK   58  A    between atoms: _138  and  _141
REMARK   59  A    between atoms: _141  and  _142
REMARK   60  A    between atoms: _142  and  _143
REMARK   61  A    between atoms: _143  and  _144
REMARK   62  A    between atoms: _153  and  _155
REMARK   63  A    between atoms: _155  and  _156
REMARK   64  A    between atoms: _155  and  _158
REMARK   65  A    between atoms: _158  and  _159
REMARK   66  A    between atoms: _164  and  _166
REMARK   67  A    between atoms: _166  and  _167
REMARK   68  A    between atoms: _169  and  _171
REMARK   69  A    between atoms: _171  and  _172
REMARK   70  A    between atoms: _171  and  _174
REMARK   71  A    between atoms: _174  and  _175
REMARK   72  A    between atoms: _175  and  _176
REMARK   73  A    between atoms: _176  and  _177
REMARK   74  A    between atoms: _186  and  _188
REMARK   75  A    between atoms: _188  and  _189
REMARK   76  A    between atoms: _191  and  _193
REMARK   77  A    between atoms: _193  and  _194
REMARK   78  A    between atoms: _193  and  _196
REMARK   79  A    between atoms: _196  and  _197
REMARK   80  A    between atoms: _207  and  _209
REMARK   81  A    between atoms: _209  and  _210
REMARK   82  A    between atoms: _213  and  _215
REMARK   83  A    between atoms: _215  and  _216
REMARK   84  A    between atoms: _219  and  _221
REMARK   85  A    between atoms: _221  and  _222
REMARK   86  A    between atoms: _221  and  _224
REMARK   87  A    between atoms: _224  and  _225
REMARK   88  A    between atoms: _228  and  _230
REMARK   89  A    between atoms: _230  and  _231
REMARK   90  A    between atoms: _230  and  _233
REMARK   91  A    between atoms: _233  and  _234
REMARK   92  A    between atoms: _234  and  _235
REMARK   93  A    between atoms: _240  and  _242
REMARK   94  A    between atoms: _242  and  _243
REMARK   95  A    between atoms: _242  and  _245
REMARK   96  A    between atoms: _245  and  _246
REMARK   97  A    between atoms: _249  and  _251
REMARK   98  A    between atoms: _251  and  _252
REMARK   99  A    between atoms: _251  and  _254
REMARK  100  A    between atoms: _254  and  _255
REMARK  101  A    between atoms: _258  and  _260
REMARK  102  A    between atoms: _260  and  _261
REMARK  103  A    between atoms: _260  and  _263
REMARK  104  A    between atoms: _263  and  _264
REMARK  105  A    between atoms: _267  and  _269
REMARK  106  A    between atoms: _269  and  _270
REMARK  107  A    between atoms: _269  and  _272
REMARK  108  A    between atoms: _272  and  _273
REMARK  109  A    between atoms: _275  and  _277
REMARK  110  A    between atoms: _277  and  _278
REMARK  111  A    between atoms: _277  and  _280
REMARK  112  A    between atoms: _283  and  _285
REMARK  113  A    between atoms: _285  and  _286
REMARK  114  A    between atoms: _285  and  _288
REMARK  115  A    between atoms: _288  and  _289
REMARK  116  A    between atoms: _289  and  _290
REMARK  117  A    between atoms: _290  and  _291
REMARK  118  A    between atoms: _291  and  _292
REMARK  119  A    between atoms: _297  and  _298
REMARK  120  A    between atoms: _303  and  _305
REMARK  121  A    between atoms: _305  and  _306
REMARK  122  A    between atoms: _305  and  _308
REMARK  123  A    between atoms: _308  and  _309
REMARK  124  A    between atoms: _314  and  _316
REMARK  125  A    between atoms: _316  and  _317
REMARK  126  A    between atoms: _316  and  _319
REMARK  127  A    between atoms: _319  and  _320
REMARK  128  A    between atoms: _323  and  _325
REMARK  129  A    between atoms: _325  and  _326
REMARK  130  A    between atoms: _325  and  _328
REMARK  131  A    between atoms: _331  and  _333
REMARK  132  A    between atoms: _333  and  _334
REMARK  133  A    between atoms: _336  and  _338
REMARK  134  A    between atoms: _338  and  _339
REMARK  135  A    between atoms: _338  and  _341
REMARK  136  A    between atoms: _341  and  _342
REMARK  137  A    between atoms: _342  and  _343
REMARK  138  A    between atoms: _343  and  _344
REMARK  139  A    between atoms: _344  and  _345
REMARK  140  A    between atoms: _349  and  _351
REMARK  141  A    between atoms: _351  and  _352
REMARK  142  A    between atoms: _351  and  _354
REMARK  143  A    between atoms: _354  and  _355
REMARK  144  A    between atoms: _358  and  _360
REMARK  145  A    between atoms: _360  and  _361
REMARK  146  A    between atoms: _364  and  _366
REMARK  147  A    between atoms: _366  and  _367
REMARK  148  A    between atoms: _369  and  _371
REMARK  149  A    between atoms: _371  and  _372
REMARK  150  A    between atoms: _371  and  _374
REMARK  151  A    between atoms: _374  and  _375
REMARK  152  A    between atoms: _378  and  _380
REMARK  153  A    between atoms: _380  and  _381
REMARK  154  A    between atoms: _380  and  _383
REMARK  155  A    between atoms: _383  and  _384
REMARK  156  A    between atoms: _387  and  _389
REMARK  157  A    between atoms: _389  and  _390
REMARK  158  A    between atoms: _393  and  _395
REMARK  159  A    between atoms: _395  and  _396
REMARK  160  A    between atoms: _395  and  _398
REMARK  161  A    between atoms: _398  and  _399
REMARK  162  A    between atoms: _399  and  _400
REMARK  163  A    between atoms: _403  and  _405
REMARK  164  A    between atoms: _405  and  _406
REMARK  165  A    between atoms: _405  and  _408
REMARK  166  A    between atoms: _411  and  _413
REMARK  167  A    between atoms: _413  and  _414
REMARK  168  A    between atoms: _413  and  _416
REMARK  169  A    between atoms: _416  and  _417
REMARK  170  A    between atoms: _420  and  _422
REMARK  171  A    between atoms: _422  and  _423
REMARK  172  A    between atoms: _425  and  _427
REMARK  173  A    between atoms: _427  and  _428
REMARK  174  A    between atoms: _427  and  _430
REMARK  175  A    between atoms: _433  and  _435
REMARK  176  A    between atoms: _435  and  _436
REMARK  177  A    between atoms: _438  and  _440
REMARK  178  A    between atoms: _440  and  _441
REMARK  179  A    between atoms: _440  and  _443
REMARK  180  A    between atoms: _443  and  _444
REMARK  181  A    between atoms: _447  and  _449
REMARK  182  A    between atoms: _449  and  _450
REMARK  183  A    between atoms: _449  and  _452
REMARK  184  A    between atoms: _452  and  _453
REMARK  185  A    between atoms: _458  and  _460
REMARK  186  A    between atoms: _460  and  _461
REMARK  187  A    between atoms: _460  and  _463
REMARK  188  A    between atoms: _466  and  _468
REMARK  189  A    between atoms: _468  and  _469
REMARK  190  A    between atoms: _468  and  _471
REMARK  191  A    between atoms: _471  and  _472
REMARK  192  A    between atoms: _472  and  _473
REMARK  193  A    between atoms: _478  and  _480
REMARK  194  A    between atoms: _480  and  _481
REMARK  195  A    between atoms: _485  and  _486
REMARK  196  A    between atoms: _491  and  _493
REMARK  197  A    between atoms: _493  and  _494
REMARK  198  A    between atoms: _493  and  _496
REMARK  199  A    between atoms: _496  and  _497
REMARK  200  A    between atoms: _497  and  _498
REMARK  201  A    between atoms: _501  and  _503
REMARK  202  A    between atoms: _503  and  _504
REMARK  203  A    between atoms: _503  and  _506
REMARK  204  A    between atoms: _509  and  _511
REMARK  205  A    between atoms: _511  and  _512
REMARK  206  A    between atoms: _511  and  _514
REMARK  207  A    between atoms: _514  and  _515
REMARK  208  A    between atoms: _519  and  _520
REMARK  209  A    between atoms: _525  and  _527
REMARK  210  A    between atoms: _527  and  _528
REMARK  211  A    between atoms: _527  and  _530
REMARK  212  A    between atoms: _530  and  _531
REMARK  213  A    between atoms: _534  and  _536
REMARK  214  A    between atoms: _536  and  _537
REMARK  215  A    between atoms: _540  and  _542
REMARK  216  A    between atoms: _542  and  _543
REMARK  217  A    between atoms: _542  and  _545
REMARK  218  A    between atoms: _545  and  _546
REMARK  219  A    between atoms: _549  and  _551
REMARK  220  A    between atoms: _551  and  _552
REMARK  221  A    between atoms: _551  and  _554
REMARK  222  A    between atoms: _554  and  _555
REMARK  223  A    between atoms: _557  and  _559
REMARK  224  A    between atoms: _559  and  _560
REMARK  225  A    between atoms: _562  and  _564
REMARK  226  A    between atoms: _564  and  _565
REMARK  227  A    between atoms: _564  and  _567
REMARK  228  A    between atoms: _567  and  _568
REMARK  229  A    between atoms: _571  and  _573
REMARK  230  A    between atoms: _573  and  _574
REMARK  231  A    between atoms: _573  and  _576
REMARK                            x       y       z     vdW  Elec       q    Type
REMARK                         _______ _______ _______ _____ _____    ______ ____
ROOT
ATOM      1  O   HOH     1     -12.667   1.108   6.092  0.00  0.00    +0.000 OA
ENDROOT
TORSDOF 0
REMARK  Name = ../refined-set-2016/4xu2/4xu2_pocket.pdb
REMARK  231 active torsions:
REMARK  status: ('A' for Active; 'I' for Inactive)
REMARK    1  A    between atoms: _1  and  _3
REMARK    2  A    between atoms: _3  and  _4
REMARK    3  A    between atoms: _3  and  _6
REMARK    4  A    between atoms: _6  and  _7
REMARK    5  A    between atoms: _10  and  _12
REMARK    6  A    between atoms: _12  and  _13
REMARK    7  A    between atoms: _15  and  _17
REMARK    8  A    between atoms: _17  and  _18
REMARK    9  A    between atoms: _17  and  _20
REMARK   10  A    between atoms: _20  and  _21
REMARK   11  A    between atoms: _23  and  _25
REMARK   12  A    between atoms: _25  and  _26
REMARK   13  A    between atoms: _25  and  _28
REMARK   14  A    between atoms: _28  and  _29
REMARK   15  A    between atoms: _32  and  _34
REMARK   16  A    between atoms: _34  and  _35
REMARK   17  A    between atoms: _34  and  _37
REMARK   18  A    between atoms: _37  and  _38
REMARK   19  A    between atoms: _43  and  _45
REMARK   20  A    between atoms: _45  and  _46
REMARK   21  A    between atoms: _49  and  _51
REMARK   22  A    between atoms: _51  and  _52
REMARK   23  A    between atoms: _51  and  _54
REMARK   24  A    between atoms: _54  and  _55
REMARK   25  A    between atoms: _58  and  _60
REMARK   26  A    between atoms: _60  and  _61
REMARK   27  A    between atoms: _60  and  _63
REMARK   28  A    between atoms: _63  and  _64
REMARK   29  A    between atoms: _67  and  _69
REMARK   30  A    between atoms: _69  and  _70
REMARK   31  A    between atoms: _69  and  _72
REMARK   32  A    between atoms: _72  and  _73
REMARK   33  A    between atoms: _76  and  _78
REMARK   34  A    between atoms: _78  and  _79
REMARK   35  A    between atoms: _82  and  _84
REMARK   36  A    between atoms: _84  and  _85
REMARK   37  A    between atoms: _84  and  _87
REMARK   38  A    between atoms: _87  and  _88
REMARK   39  A    between atoms: _88  and  _89
REMARK   40  A    between atoms: _94  and  _96
REMARK   41  A    between atoms: _96  and  _97
REMARK   42  A    between atoms: _96  and  _99
REMARK   43  A    between atoms: _99  and  _100
REMARK   44  A    between atoms: _103  and  _105
REMARK   45  A    between atoms: _105  and  _106
REMARK   46  A    between atoms: _109  and  _111
REMARK   47  A    between atoms: _111  and  _112
REMARK   48  A    between atoms: _114  and  _116
REMARK   49  A    between atoms: _116  and  _117
REMARK   50  A    between atoms: _116  and  _119
REMARK   51  A    between atoms: _119  and  _120
REMARK   52  A    between atoms: _120  and  _121
REMARK   53  A    between atoms: _121  and  _122
REMARK   54  A    between atoms: _131  and  _133
REMARK   55  A    between atoms: _133  and  _134
REMARK   56  A    between atoms: _136  and  _138
REMARK   57  A    between atoms: _138  and  _139
REMARK   58  A    between atoms: _138  and  _141
REMARK   59  A    between atoms: _141  and  _142
REMARK   60  A    between atoms: _142  and  _143
REMARK   61  A    between atoms: _143  and  _144
REMARK   62  A    between atoms: _153  and  _155
REMARK   63  A    between atoms: _155  and  _156
REMARK   64  A    between atoms: _155  and  _158
REMARK   65  A    between atoms: _158  and  _159
REMARK   66  A    between atoms: _164  and  _166
REMARK   67  A    between atoms: _166  and  _167
REMARK   68  A    between atoms: _169  and  _171
REMARK   69  A    between atoms: _171  and  _172
REMARK   70  A    between atoms: _171  and  _174
REMARK   71  A    between atoms: _174  and  _175
REMARK   72  A    between atoms: _175  and  _176
REMARK   73  A    between atoms: _176  and  _177
REMARK   74  A    between atoms: _186  and  _188
REMARK   75  A    between atoms: _188  and  _189
REMARK   76  A    between atoms: _191  and  _193
REMARK   77  A    between atoms: _193  and  _194
REMARK   78  A    between atoms: _193  and  _196
REMARK   79  A    between atoms: _196  and  _197
REMARK   80  A    between atoms: _207  and  _209
REMARK   81  A    between atoms: _209  and  _210
REMARK   82  A    between atoms: _213  and  _215
REMARK   83  A    between atoms: _215  and  _216
REMARK   84  A    between atoms: _219  and  _221
REMARK   85  A    between atoms: _221  and  _222
REMARK   86  A    between atoms: _221  and  _224
REMARK   87  A    between atoms: _224  and  _225
REMARK   88  A    between atoms: _228  and  _230
REMARK   89  A    between atoms: _230  and  _231
REMARK   90  A    between atoms: _230  and  _233
REMARK   91  A    between atoms: _233  and  _234
REMARK   92  A    between atoms: _234  and  _235
REMARK   93  A    between atoms: _240  and  _242
REMARK   94  A    between atoms: _242  and  _243
REMARK   95  A    between atoms: _242  and  _245
REMARK   96  A    between atoms: _245  and  _246
REMARK   97  A    between atoms: _249  and  _251
REMARK   98  A    between atoms: _251  and  _252
REMARK   99  A    between atoms: _251  and  _254
REMARK  100  A    between atoms: _254  and  _255
REMARK  101  A    between atoms: _258  and  _260
REMARK  102  A    between atoms: _260  and  _261
REMARK  103  A    between atoms: _260  and  _263
REMARK  104  A    between atoms: _263  and  _264
REMARK  105  A    between atoms: _267  and  _269
REMARK  106  A    between atoms: _269  and  _270
REMARK  107  A    between atoms: _269  and  _272
REMARK  108  A    between atoms: _272  and  _273
REMARK  109  A    between atoms: _275  and  _277
REMARK  110  A    between atoms: _277  and  _278
REMARK  111  A    between atoms: _277  and  _280
REMARK  112  A    between atoms: _283  and  _285
REMARK  113  A    between atoms: _285  and  _286
REMARK  114  A    between atoms: _285  and  _288
REMARK  115  A    between atoms: _288  and  _289
REMARK  116  A    between atoms: _289  and  _290
REMARK  117  A    between atoms: _290  and  _291
REMARK  118  A    between atoms: _291  and  _292
REMARK  119  A    between atoms: _297  and  _298
REMARK  120  A    between atoms: _303  and  _305
REMARK  121  A    between atoms: _305  and  _306
REMARK  122  A    between atoms: _305  and  _308
REMARK  123  A    between atoms: _308  and  _309
REMARK  124  A    between atoms: _314  and  _316
REMARK  125  A    between atoms: _316  and  _317
REMARK  126  A    between atoms: _316  and  _319
REMARK  127  A    between atoms: _319  and  _320
REMARK  128  A    between atoms: _323  and  _325
REMARK  129  A    between atoms: _325  and  _326
REMARK  130  A    between atoms: _325  and  _328
REMARK  131  A    between atoms: _331  and  _333
REMARK  132  A    between atoms: _333  and  _334
REMARK  133  A    between atoms: _336  and  _338
REMARK  134  A    between atoms: _338  and  _339
REMARK  135  A    between atoms: _338  and  _341
REMARK  136  A    between atoms: _341  and  _342
REMARK  137  A    between atoms: _342  and  _343
REMARK  138  A    between atoms: _343  and  _344
REMARK  139  A    between atoms: _344  and  _345
REMARK  140  A    between atoms: _349  and  _351
REMARK  141  A    between atoms: _351  and  _352
REMARK  142  A    between atoms: _351  and  _354
REMARK  143  A    between atoms: _354  and  _355
REMARK  144  A    between atoms: _358  and  _360
REMARK  145  A    between atoms: _360  and  _361
REMARK  146  A    between atoms: _364  and  _366
REMARK  147  A    between atoms: _366  and  _367
REMARK  148  A    between atoms: _369  and  _371
REMARK  149  A    between atoms: _371  and  _372
REMARK  150  A    between atoms: _371  and  _374
REMARK  151  A    between atoms: _374  and  _375
REMARK  152  A    between atoms: _378  and  _380
REMARK  153  A    between atoms: _380  and  _381
REMARK  154  A    between atoms: _380  and  _383
REMARK  155  A    between atoms: _383  and  _384
REMARK  156  A    between atoms: _387  and  _389
REMARK  157  A    between atoms: _389  and  _390
REMARK  158  A    between atoms: _393  and  _395
REMARK  159  A    between atoms: _395  and  _396
REMARK  160  A    between atoms: _395  and  _398
REMARK  161  A    between atoms: _398  and  _399
REMARK  162  A    between atoms: _399  and  _400
REMARK  163  A    between atoms: _403  and  _405
REMARK  164  A    between atoms: _405  and  _406
REMARK  165  A    between atoms: _405  and  _408
REMARK  166  A    between atoms: _411  and  _413
REMARK  167  A    between atoms: _413  and  _414
REMARK  168  A    between atoms: _413  and  _416
REMARK  169  A    between atoms: _416  and  _417
REMARK  170  A    between atoms: _420  and  _422
REMARK  171  A    between atoms: _422  and  _423
REMARK  172  A    between atoms: _425  and  _427
REMARK  173  A    between atoms: _427  and  _428
REMARK  174  A    between atoms: _427  and  _430
REMARK  175  A    between atoms: _433  and  _435
REMARK  176  A    between atoms: _435  and  _436
REMARK  177  A    between atoms: _438  and  _440
REMARK  178  A    between atoms: _440  and  _441
REMARK  179  A    between atoms: _440  and  _443
REMARK  180  A    between atoms: _443  and  _444
REMARK  181  A    between atoms: _447  and  _449
REMARK  182  A    between atoms: _449  and  _450
REMARK  183  A    between atoms: _449  and  _452
REMARK  184  A    between atoms: _452  and  _453
REMARK  185  A    between atoms: _458  and  _460
REMARK  186  A    between atoms: _460  and  _461
REMARK  187  A    between atoms: _460  and  _463
REMARK  188  A    between atoms: _466  and  _468
REMARK  189  A    between atoms: _468  and  _469
REMARK  190  A    between atoms: _468  and  _471
REMARK  191  A    between atoms: _471  and  _472
REMARK  192  A    between atoms: _472  and  _473
REMARK  193  A    between atoms: _478  and  _480
REMARK  194  A    between atoms: _480  and  _481
REMARK  195  A    between atoms: _485  and  _486
REMARK  196  A    between atoms: _491  and  _493
REMARK  197  A    between atoms: _493  and  _494
REMARK  198  A    between atoms: _493  and  _496
REMARK  199  A    between atoms: _496  and  _497
REMARK  200  A    between atoms: _497  and  _498
REMARK  201  A    between atoms: _501  and  _503
REMARK  202  A    between atoms: _503  and  _504
REMARK  203  A    between atoms: _503  and  _506
REMARK  204  A    between atoms: _509  and  _511
REMARK  205  A    between atoms: _511  and  _512
REMARK  206  A    between atoms: _511  and  _514
REMARK  207  A    between atoms: _514  and  _515
REMARK  208  A    between atoms: _519  and  _520
REMARK  209  A    between atoms: _525  and  _527
REMARK  210  A    between atoms: _527  and  _528
REMARK  211  A    between atoms: _527  and  _530
REMARK  212  A    between atoms: _530  and  _531
REMARK  213  A    between atoms: _534  and  _536
REMARK  214  A    between atoms: _536  and  _537
REMARK  215  A    between atoms: _540  and  _542
REMARK  216  A    between atoms: _542  and  _543
REMARK  217  A    between atoms: _542  and  _545
REMARK  218  A    between atoms: _545  and  _546
REMARK  219  A    between atoms: _549  and  _551
REMARK  220  A    between atoms: _551  and  _552
REMARK  221  A    between atoms: _551  and  _554
REMARK  222  A    between atoms: _554  and  _555
REMARK  223  A    between atoms: _557  and  _559
REMARK  224  A    between atoms: _559  and  _560
REMARK  225  A    between atoms: _562  and  _564
REMARK  226  A    between atoms: _564  and  _565
REMARK  227  A    between atoms: _564  and  _567
REMARK  228  A    between atoms: _567  and  _568
REMARK  229  A    between atoms: _571  and  _573
REMARK  230  A    between atoms: _573  and  _574
REMARK  231  A    between atoms: _573  and  _576
REMARK                            x       y       z     vdW  Elec       q    Type
REMARK                         _______ _______ _______ _____ _____    ______ ____
ROOT
ATOM      1  O   HOH     1      -1.912  -4.314  -2.438  0.00  0.00    +0.000 OA
ENDROOT
TORSDOF 0
REMARK  Name = ../refined-set-2016/4xu2/4xu2_pocket.pdb
REMARK  231 active torsions:
REMARK  status: ('A' for Active; 'I' for Inactive)
REMARK    1  A    between atoms: _1  and  _3
REMARK    2  A    between atoms: _3  and  _4
REMARK    3  A    between atoms: _3  and  _6
REMARK    4  A    between atoms: _6  and  _7
REMARK    5  A    between atoms: _10  and  _12
REMARK    6  A    between atoms: _12  and  _13
REMARK    7  A    between atoms: _15  and  _17
REMARK    8  A    between atoms: _17  and  _18
REMARK    9  A    between atoms: _17  and  _20
REMARK   10  A    between atoms: _20  and  _21
REMARK   11  A    between atoms: _23  and  _25
REMARK   12  A    between atoms: _25  and  _26
REMARK   13  A    between atoms: _25  and  _28
REMARK   14  A    between atoms: _28  and  _29
REMARK   15  A    between atoms: _32  and  _34
REMARK   16  A    between atoms: _34  and  _35
REMARK   17  A    between atoms: _34  and  _37
REMARK   18  A    between atoms: _37  and  _38
REMARK   19  A    between atoms: _43  and  _45
REMARK   20  A    between atoms: _45  and  _46
REMARK   21  A    between atoms: _49  and  _51
REMARK   22  A    between atoms: _51  and  _52
REMARK   23  A    between atoms: _51  and  _54
REMARK   24  A    between atoms: _54  and  _55
REMARK   25  A    between atoms: _58  and  _60
REMARK   26  A    between atoms: _60  and  _61
REMARK   27  A    between atoms: _60  and  _63
REMARK   28  A    between atoms: _63  and  _64
REMARK   29  A    between atoms: _67  and  _69
REMARK   30  A    between atoms: _69  and  _70
REMARK   31  A    between atoms: _69  and  _72
REMARK   32  A    between atoms: _72  and  _73
REMARK   33  A    between atoms: _76  and  _78
REMARK   34  A    between atoms: _78  and  _79
REMARK   35  A    between atoms: _82  and  _84
REMARK   36  A    between atoms: _84  and  _85
REMARK   37  A    between atoms: _84  and  _87
REMARK   38  A    between atoms: _87  and  _88
REMARK   39  A    between atoms: _88  and  _89
REMARK   40  A    between atoms: _94  and  _96
REMARK   41  A    between atoms: _96  and  _97
REMARK   42  A    between atoms: _96  and  _99
REMARK   43  A    between atoms: _99  and  _100
REMARK   44  A    between atoms: _103  and  _105
REMARK   45  A    between atoms: _105  and  _106
REMARK   46  A    between atoms: _109  and  _111
REMARK   47  A    between atoms: _111  and  _112
REMARK   48  A    between atoms: _114  and  _116
REMARK   49  A    between atoms: _116  and  _117
REMARK   50  A    between atoms: _116  and  _119
REMARK   51  A    between atoms: _119  and  _120
REMARK   52  A    between atoms: _120  and  _121
REMARK   53  A    between atoms: _121  and  _122
REMARK   54  A    between atoms: _131  and  _133
REMARK   55  A    between atoms: _133  and  _134
REMARK   56  A    between atoms: _136  and  _138
REMARK   57  A    between atoms: _138  and  _139
REMARK   58  A    between atoms: _138  and  _141
REMARK   59  A    between atoms: _141  and  _142
REMARK   60  A    between atoms: _142  and  _143
REMARK   61  A    between atoms: _143  and  _144
REMARK   62  A    between atoms: _153  and  _155
REMARK   63  A    between atoms: _155  and  _156
REMARK   64  A    between atoms: _155  and  _158
REMARK   65  A    between atoms: _158  and  _159
REMARK   66  A    between atoms: _164  and  _166
REMARK   67  A    between atoms: _166  and  _167
REMARK   68  A    between atoms: _169  and  _171
REMARK   69  A    between atoms: _171  and  _172
REMARK   70  A    between atoms: _171  and  _174
REMARK   71  A    between atoms: _174  and  _175
REMARK   72  A    between atoms: _175  and  _176
REMARK   73  A    between atoms: _176  and  _177
REMARK   74  A    between atoms: _186  and  _188
REMARK   75  A    between atoms: _188  and  _189
REMARK   76  A    between atoms: _191  and  _193
REMARK   77  A    between atoms: _193  and  _194
REMARK   78  A    between atoms: _193  and  _196
REMARK   79  A    between atoms: _196  and  _197
REMARK   80  A    between atoms: _207  and  _209
REMARK   81  A    between atoms: _209  and  _210
REMARK   82  A    between atoms: _213  and  _215
REMARK   83  A    between atoms: _215  and  _216
REMARK   84  A    between atoms: _219  and  _221
REMARK   85  A    between atoms: _221  and  _222
REMARK   86  A    between atoms: _221  and  _224
REMARK   87  A    between atoms: _224  and  _225
REMARK   88  A    between atoms: _228  and  _230
REMARK   89  A    between atoms: _230  and  _231
REMARK   90  A    between atoms: _230  and  _233
REMARK   91  A    between atoms: _233  and  _234
REMARK   92  A    between atoms: _234  and  _235
REMARK   93  A    between atoms: _240  and  _242
REMARK   94  A    between atoms: _242  and  _243
REMARK   95  A    between atoms: _242  and  _245
REMARK   96  A    between atoms: _245  and  _246
REMARK   97  A    between atoms: _249  and  _251
REMARK   98  A    between atoms: _251  and  _252
REMARK   99  A    between atoms: _251  and  _254
REMARK  100  A    between atoms: _254  and  _255
REMARK  101  A    between atoms: _258  and  _260
REMARK  102  A    between atoms: _260  and  _261
REMARK  103  A    between atoms: _260  and  _263
REMARK  104  A    between atoms: _263  and  _264
REMARK  105  A    between atoms: _267  and  _269
REMARK  106  A    between atoms: _269  and  _270
REMARK  107  A    between atoms: _269  and  _272
REMARK  108  A    between atoms: _272  and  _273
REMARK  109  A    between atoms: _275  and  _277
REMARK  110  A    between atoms: _277  and  _278
REMARK  111  A    between atoms: _277  and  _280
REMARK  112  A    between atoms: _283  and  _285
REMARK  113  A    between atoms: _285  and  _286
REMARK  114  A    between atoms: _285  and  _288
REMARK  115  A    between atoms: _288  and  _289
REMARK  116  A    between atoms: _289  and  _290
REMARK  117  A    between atoms: _290  and  _291
REMARK  118  A    between atoms: _291  and  _292
REMARK  119  A    between atoms: _297  and  _298
REMARK  120  A    between atoms: _303  and  _305
REMARK  121  A    between atoms: _305  and  _306
REMARK  122  A    between atoms: _305  and  _308
REMARK  123  A    between atoms: _308  and  _309
REMARK  124  A    between atoms: _314  and  _316
REMARK  125  A    between atoms: _316  and  _317
REMARK  126  A    between atoms: _316  and  _319
REMARK  127  A    between atoms: _319  and  _320
REMARK  128  A    between atoms: _323  and  _325
REMARK  129  A    between atoms: _325  and  _326
REMARK  130  A    between atoms: _325  and  _328
REMARK  131  A    between atoms: _331  and  _333
REMARK  132  A    between atoms: _333  and  _334
REMARK  133  A    between atoms: _336  and  _338
REMARK  134  A    between atoms: _338  and  _339
REMARK  135  A    between atoms: _338  and  _341
REMARK  136  A    between atoms: _341  and  _342
REMARK  137  A    between atoms: _342  and  _343
REMARK  138  A    between atoms: _343  and  _344
REMARK  139  A    between atoms: _344  and  _345
REMARK  140  A    between atoms: _349  and  _351
REMARK  141  A    between atoms: _351  and  _352
REMARK  142  A    between atoms: _351  and  _354
REMARK  143  A    between atoms: _354  and  _355
REMARK  144  A    between atoms: _358  and  _360
REMARK  145  A    between atoms: _360  and  _361
REMARK  146  A    between atoms: _364  and  _366
REMARK  147  A    between atoms: _366  and  _367
REMARK  148  A    between atoms: _369  and  _371
REMARK  149  A    between atoms: _371  and  _372
REMARK  150  A    between atoms: _371  and  _374
REMARK  151  A    between atoms: _374  and  _375
REMARK  152  A    between atoms: _378  and  _380
REMARK  153  A    between atoms: _380  and  _381
REMARK  154  A    between atoms: _380  and  _383
REMARK  155  A    between atoms: _383  and  _384
REMARK  156  A    between atoms: _387  and  _389
REMARK  157  A    between atoms: _389  and  _390
REMARK  158  A    between atoms: _393  and  _395
REMARK  159  A    between atoms: _395  and  _396
REMARK  160  A    between atoms: _395  and  _398
REMARK  161  A    between atoms: _398  and  _399
REMARK  162  A    between atoms: _399  and  _400
REMARK  163  A    between atoms: _403  and  _405
REMARK  164  A    between atoms: _405  and  _406
REMARK  165  A    between atoms: _405  and  _408
REMARK  166  A    between atoms: _411  and  _413
REMARK  167  A    between atoms: _413  and  _414
REMARK  168  A    between atoms: _413  and  _416
REMARK  169  A    between atoms: _416  and  _417
REMARK  170  A    between atoms: _420  and  _422
REMARK  171  A    between atoms: _422  and  _423
REMARK  172  A    between atoms: _425  and  _427
REMARK  173  A    between atoms: _427  and  _428
REMARK  174  A    between atoms: _427  and  _430
REMARK  175  A    between atoms: _433  and  _435
REMARK  176  A    between atoms: _435  and  _436
REMARK  177  A    between atoms: _438  and  _440
REMARK  178  A    between atoms: _440  and  _441
REMARK  179  A    between atoms: _440  and  _443
REMARK  180  A    between atoms: _443  and  _444
REMARK  181  A    between atoms: _447  and  _449
REMARK  182  A    between atoms: _449  and  _450
REMARK  183  A    between atoms: _449  and  _452
REMARK  184  A    between atoms: _452  and  _453
REMARK  185  A    between atoms: _458  and  _460
REMARK  186  A    between atoms: _460  and  _461
REMARK  187  A    between atoms: _460  and  _463
REMARK  188  A    between atoms: _466  and  _468
REMARK  189  A    between atoms: _468  and  _469
REMARK  190  A    between atoms: _468  and  _471
REMARK  191  A    between atoms: _471  and  _472
REMARK  192  A    between atoms: _472  and  _473
REMARK  193  A    between atoms: _478  and  _480
REMARK  194  A    between atoms: _480  and  _481
REMARK  195  A    between atoms: _485  and  _486
REMARK  196  A    between atoms: _491  and  _493
REMARK  197  A    between atoms: _493  and  _494
REMARK  198  A    between atoms: _493  and  _496
REMARK  199  A    between atoms: _496  and  _497
REMARK  200  A    between atoms: _497  and  _498
REMARK  201  A    between atoms: _501  and  _503
REMARK  202  A    between atoms: _503  and  _504
REMARK  203  A    between atoms: _503  and  _506
REMARK  204  A    between atoms: _509  and  _511
REMARK  205  A    between atoms: _511  and  _512
REMARK  206  A    between atoms: _511  and  _514
REMARK  207  A    between atoms: _514  and  _515
REMARK  208  A    between atoms: _519  and  _520
REMARK  209  A    between atoms: _525  and  _527
REMARK  210  A    between atoms: _527  and  _528
REMARK  211  A    between atoms: _527  and  _530
REMARK  212  A    between atoms: _530  and  _531
REMARK  213  A    between atoms: _534  and  _536
REMARK  214  A    between atoms: _536  and  _537
REMARK  215  A    between atoms: _540  and  _542
REMARK  216  A    between atoms: _542  and  _543
REMARK  217  A    between atoms: _542  and  _545
REMARK  218  A    between atoms: _545  and  _546
REMARK  219  A    between atoms: _549  and  _551
REMARK  220  A    between atoms: _551  and  _552
REMARK  221  A    between atoms: _551  and  _554
REMARK  222  A    between atoms: _554  and  _555
REMARK  223  A    between atoms: _557  and  _559
REMARK  224  A    between atoms: _559  and  _560
REMARK  225  A    between atoms: _562  and  _564
REMARK  226  A    between atoms: _564  and  _565
REMARK  227  A    between atoms: _564  and  _567
REMARK  228  A    between atoms: _567  and  _568
REMARK  229  A    between atoms: _571  and  _573
REMARK  230  A    between atoms: _573  and  _574
REMARK  231  A    between atoms: _573  and  _576
REMARK                            x       y       z     vdW  Elec       q    Type
REMARK                         _______ _______ _______ _____ _____    ______ ____
ROOT
ATOM      1  O   HOH     1      -8.362   0.308   6.468  0.00  0.00    +0.000 OA
ENDROOT
TORSDOF 0
REMARK  Name = ../refined-set-2016/4xu2/4xu2_pocket.pdb
REMARK  231 active torsions:
REMARK  status: ('A' for Active; 'I' for Inactive)
REMARK    1  A    between atoms: _1  and  _3
REMARK    2  A    between atoms: _3  and  _4
REMARK    3  A    between atoms: _3  and  _6
REMARK    4  A    between atoms: _6  and  _7
REMARK    5  A    between atoms: _10  and  _12
REMARK    6  A    between atoms: _12  and  _13
REMARK    7  A    between atoms: _15  and  _17
REMARK    8  A    between atoms: _17  and  _18
REMARK    9  A    between atoms: _17  and  _20
REMARK   10  A    between atoms: _20  and  _21
REMARK   11  A    between atoms: _23  and  _25
REMARK   12  A    between atoms: _25  and  _26
REMARK   13  A    between atoms: _25  and  _28
REMARK   14  A    between atoms: _28  and  _29
REMARK   15  A    between atoms: _32  and  _34
REMARK   16  A    between atoms: _34  and  _35
REMARK   17  A    between atoms: _34  and  _37
REMARK   18  A    between atoms: _37  and  _38
REMARK   19  A    between atoms: _43  and  _45
REMARK   20  A    between atoms: _45  and  _46
REMARK   21  A    between atoms: _49  and  _51
REMARK   22  A    between atoms: _51  and  _52
REMARK   23  A    between atoms: _51  and  _54
REMARK   24  A    between atoms: _54  and  _55
REMARK   25  A    between atoms: _58  and  _60
REMARK   26  A    between atoms: _60  and  _61
REMARK   27  A    between atoms: _60  and  _63
REMARK   28  A    between atoms: _63  and  _64
REMARK   29  A    between atoms: _67  and  _69
REMARK   30  A    between atoms: _69  and  _70
REMARK   31  A    between atoms: _69  and  _72
REMARK   32  A    between atoms: _72  and  _73
REMARK   33  A    between atoms: _76  and  _78
REMARK   34  A    between atoms: _78  and  _79
REMARK   35  A    between atoms: _82  and  _84
REMARK   36  A    between atoms: _84  and  _85
REMARK   37  A    between atoms: _84  and  _87
REMARK   38  A    between atoms: _87  and  _88
REMARK   39  A    between atoms: _88  and  _89
REMARK   40  A    between atoms: _94  and  _96
REMARK   41  A    between atoms: _96  and  _97
REMARK   42  A    between atoms: _96  and  _99
REMARK   43  A    between atoms: _99  and  _100
REMARK   44  A    between atoms: _103  and  _105
REMARK   45  A    between atoms: _105  and  _106
REMARK   46  A    between atoms: _109  and  _111
REMARK   47  A    between atoms: _111  and  _112
REMARK   48  A    between atoms: _114  and  _116
REMARK   49  A    between atoms: _116  and  _117
REMARK   50  A    between atoms: _116  and  _119
REMARK   51  A    between atoms: _119  and  _120
REMARK   52  A    between atoms: _120  and  _121
REMARK   53  A    between atoms: _121  and  _122
REMARK   54  A    between atoms: _131  and  _133
REMARK   55  A    between atoms: _133  and  _134
REMARK   56  A    between atoms: _136  and  _138
REMARK   57  A    between atoms: _138  and  _139
REMARK   58  A    between atoms: _138  and  _141
REMARK   59  A    between atoms: _141  and  _142
REMARK   60  A    between atoms: _142  and  _143
REMARK   61  A    between atoms: _143  and  _144
REMARK   62  A    between atoms: _153  and  _155
REMARK   63  A    between atoms: _155  and  _156
REMARK   64  A    between atoms: _155  and  _158
REMARK   65  A    between atoms: _158  and  _159
REMARK   66  A    between atoms: _164  and  _166
REMARK   67  A    between atoms: _166  and  _167
REMARK   68  A    between atoms: _169  and  _171
REMARK   69  A    between atoms: _171  and  _172
REMARK   70  A    between atoms: _171  and  _174
REMARK   71  A    between atoms: _174  and  _175
REMARK   72  A    between atoms: _175  and  _176
REMARK   73  A    between atoms: _176  and  _177
REMARK   74  A    between atoms: _186  and  _188
REMARK   75  A    between atoms: _188  and  _189
REMARK   76  A    between atoms: _191  and  _193
REMARK   77  A    between atoms: _193  and  _194
REMARK   78  A    between atoms: _193  and  _196
REMARK   79  A    between atoms: _196  and  _197
REMARK   80  A    between atoms: _207  and  _209
REMARK   81  A    between atoms: _209  and  _210
REMARK   82  A    between atoms: _213  and  _215
REMARK   83  A    between atoms: _215  and  _216
REMARK   84  A    between atoms: _219  and  _221
REMARK   85  A    between atoms: _221  and  _222
REMARK   86  A    between atoms: _221  and  _224
REMARK   87  A    between atoms: _224  and  _225
REMARK   88  A    between atoms: _228  and  _230
REMARK   89  A    between atoms: _230  and  _231
REMARK   90  A    between atoms: _230  and  _233
REMARK   91  A    between atoms: _233  and  _234
REMARK   92  A    between atoms: _234  and  _235
REMARK   93  A    between atoms: _240  and  _242
REMARK   94  A    between atoms: _242  and  _243
REMARK   95  A    between atoms: _242  and  _245
REMARK   96  A    between atoms: _245  and  _246
REMARK   97  A    between atoms: _249  and  _251
REMARK   98  A    between atoms: _251  and  _252
REMARK   99  A    between atoms: _251  and  _254
REMARK  100  A    between atoms: _254  and  _255
REMARK  101  A    between atoms: _258  and  _260
REMARK  102  A    between atoms: _260  and  _261
REMARK  103  A    between atoms: _260  and  _263
REMARK  104  A    between atoms: _263  and  _264
REMARK  105  A    between atoms: _267  and  _269
REMARK  106  A    between atoms: _269  and  _270
REMARK  107  A    between atoms: _269  and  _272
REMARK  108  A    between atoms: _272  and  _273
REMARK  109  A    between atoms: _275  and  _277
REMARK  110  A    between atoms: _277  and  _278
REMARK  111  A    between atoms: _277  and  _280
REMARK  112  A    between atoms: _283  and  _285
REMARK  113  A    between atoms: _285  and  _286
REMARK  114  A    between atoms: _285  and  _288
REMARK  115  A    between atoms: _288  and  _289
REMARK  116  A    between atoms: _289  and  _290
REMARK  117  A    between atoms: _290  and  _291
REMARK  118  A    between atoms: _291  and  _292
REMARK  119  A    between atoms: _297  and  _298
REMARK  120  A    between atoms: _303  and  _305
REMARK  121  A    between atoms: _305  and  _306
REMARK  122  A    between atoms: _305  and  _308
REMARK  123  A    between atoms: _308  and  _309
REMARK  124  A    between atoms: _314  and  _316
REMARK  125  A    between atoms: _316  and  _317
REMARK  126  A    between atoms: _316  and  _319
REMARK  127  A    between atoms: _319  and  _320
REMARK  128  A    between atoms: _323  and  _325
REMARK  129  A    between atoms: _325  and  _326
REMARK  130  A    between atoms: _325  and  _328
REMARK  131  A    between atoms: _331  and  _333
REMARK  132  A    between atoms: _333  and  _334
REMARK  133  A    between atoms: _336  and  _338
REMARK  134  A    between atoms: _338  and  _339
REMARK  135  A    between atoms: _338  and  _341
REMARK  136  A    between atoms: _341  and  _342
REMARK  137  A    between atoms: _342  and  _343
REMARK  138  A    between atoms: _343  and  _344
REMARK  139  A    between atoms: _344  and  _345
REMARK  140  A    between atoms: _349  and  _351
REMARK  141  A    between atoms: _351  and  _352
REMARK  142  A    between atoms: _351  and  _354
REMARK  143  A    between atoms: _354  and  _355
REMARK  144  A    between atoms: _358  and  _360
REMARK  145  A    between atoms: _360  and  _361
REMARK  146  A    between atoms: _364  and  _366
REMARK  147  A    between atoms: _366  and  _367
REMARK  148  A    between atoms: _369  and  _371
REMARK  149  A    between atoms: _371  and  _372
REMARK  150  A    between atoms: _371  and  _374
REMARK  151  A    between atoms: _374  and  _375
REMARK  152  A    between atoms: _378  and  _380
REMARK  153  A    between atoms: _380  and  _381
REMARK  154  A    between atoms: _380  and  _383
REMARK  155  A    between atoms: _383  and  _384
REMARK  156  A    between atoms: _387  and  _389
REMARK  157  A    between atoms: _389  and  _390
REMARK  158  A    between atoms: _393  and  _395
REMARK  159  A    between atoms: _395  and  _396
REMARK  160  A    between atoms: _395  and  _398
REMARK  161  A    between atoms: _398  and  _399
REMARK  162  A    between atoms: _399  and  _400
REMARK  163  A    between atoms: _403  and  _405
REMARK  164  A    between atoms: _405  and  _406
REMARK  165  A    between atoms: _405  and  _408
REMARK  166  A    between atoms: _411  and  _413
REMARK  167  A    between atoms: _413  and  _414
REMARK  168  A    between atoms: _413  and  _416
REMARK  169  A    between atoms: _416  and  _417
REMARK  170  A    between atoms: _420  and  _422
REMARK  171  A    between atoms: _422  and  _423
REMARK  172  A    between atoms: _425  and  _427
REMARK  173  A    between atoms: _427  and  _428
REMARK  174  A    between atoms: _427  and  _430
REMARK  175  A    between atoms: _433  and  _435
REMARK  176  A    between atoms: _435  and  _436
REMARK  177  A    between atoms: _438  and  _440
REMARK  178  A    between atoms: _440  and  _441
REMARK  179  A    between atoms: _440  and  _443
REMARK  180  A    between atoms: _443  and  _444
REMARK  181  A    between atoms: _447  and  _449
REMARK  182  A    between atoms: _449  and  _450
REMARK  183  A    between atoms: _449  and  _452
REMARK  184  A    between atoms: _452  and  _453
REMARK  185  A    between atoms: _458  and  _460
REMARK  186  A    between atoms: _460  and  _461
REMARK  187  A    between atoms: _460  and  _463
REMARK  188  A    between atoms: _466  and  _468
REMARK  189  A    between atoms: _468  and  _469
REMARK  190  A    between atoms: _468  and  _471
REMARK  191  A    between atoms: _471  and  _472
REMARK  192  A    between atoms: _472  and  _473
REMARK  193  A    between atoms: _478  and  _480
REMARK  194  A    between atoms: _480  and  _481
REMARK  195  A    between atoms: _485  and  _486
REMARK  196  A    between atoms: _491  and  _493
REMARK  197  A    between atoms: _493  and  _494
REMARK  198  A    between atoms: _493  and  _496
REMARK  199  A    between atoms: _496  and  _497
REMARK  200  A    between atoms: _497  and  _498
REMARK  201  A    between atoms: _501  and  _503
REMARK  202  A    between atoms: _503  and  _504
REMARK  203  A    between atoms: _503  and  _506
REMARK  204  A    between atoms: _509  and  _511
REMARK  205  A    between atoms: _511  and  _512
REMARK  206  A    between atoms: _511  and  _514
REMARK  207  A    between atoms: _514  and  _515
REMARK  208  A    between atoms: _519  and  _520
REMARK  209  A    between atoms: _525  and  _527
REMARK  210  A    between atoms: _527  and  _528
REMARK  211  A    between atoms: _527  and  _530
REMARK  212  A    between atoms: _530  and  _531
REMARK  213  A    between atoms: _534  and  _536
REMARK  214  A    between atoms: _536  and  _537
REMARK  215  A    between atoms: _540  and  _542
REMARK  216  A    between atoms: _542  and  _543
REMARK  217  A    between atoms: _542  and  _545
REMARK  218  A    between atoms: _545  and  _546
REMARK  219  A    between atoms: _549  and  _551
REMARK  220  A    between atoms: _551  and  _552
REMARK  221  A    between atoms: _551  and  _554
REMARK  222  A    between atoms: _554  and  _555
REMARK  223  A    between atoms: _557  and  _559
REMARK  224  A    between atoms: _559  and  _560
REMARK  225  A    between atoms: _562  and  _564
REMARK  226  A    between atoms: _564  and  _565
REMARK  227  A    between atoms: _564  and  _567
REMARK  228  A    between atoms: _567  and  _568
REMARK  229  A    between atoms: _571  and  _573
REMARK  230  A    between atoms: _573  and  _574
REMARK  231  A    between atoms: _573  and  _576
REMARK                            x       y       z     vdW  Elec       q    Type
REMARK                         _______ _______ _______ _____ _____    ______ ____
ROOT
ATOM      1  O   HOH     1      -8.085  -4.903   3.007  0.00  0.00    +0.000 OA
ENDROOT
TORSDOF 0
REMARK  Name = ../refined-set-2016/4xu2/4xu2_pocket.pdb
REMARK  231 active torsions:
REMARK  status: ('A' for Active; 'I' for Inactive)
REMARK    1  A    between atoms: _1  and  _3
REMARK    2  A    between atoms: _3  and  _4
REMARK    3  A    between atoms: _3  and  _6
REMARK    4  A    between atoms: _6  and  _7
REMARK    5  A    between atoms: _10  and  _12
REMARK    6  A    between atoms: _12  and  _13
REMARK    7  A    between atoms: _15  and  _17
REMARK    8  A    between atoms: _17  and  _18
REMARK    9  A    between atoms: _17  and  _20
REMARK   10  A    between atoms: _20  and  _21
REMARK   11  A    between atoms: _23  and  _25
REMARK   12  A    between atoms: _25  and  _26
REMARK   13  A    between atoms: _25  and  _28
REMARK   14  A    between atoms: _28  and  _29
REMARK   15  A    between atoms: _32  and  _34
REMARK   16  A    between atoms: _34  and  _35
REMARK   17  A    between atoms: _34  and  _37
REMARK   18  A    between atoms: _37  and  _38
REMARK   19  A    between atoms: _43  and  _45
REMARK   20  A    between atoms: _45  and  _46
REMARK   21  A    between atoms: _49  and  _51
REMARK   22  A    between atoms: _51  and  _52
REMARK   23  A    between atoms: _51  and  _54
REMARK   24  A    between atoms: _54  and  _55
REMARK   25  A    between atoms: _58  and  _60
REMARK   26  A    between atoms: _60  and  _61
REMARK   27  A    between atoms: _60  and  _63
REMARK   28  A    between atoms: _63  and  _64
REMARK   29  A    between atoms: _67  and  _69
REMARK   30  A    between atoms: _69  and  _70
REMARK   31  A    between atoms: _69  and  _72
REMARK   32  A    between atoms: _72  and  _73
REMARK   33  A    between atoms: _76  and  _78
REMARK   34  A    between atoms: _78  and  _79
REMARK   35  A    between atoms: _82  and  _84
REMARK   36  A    between atoms: _84  and  _85
REMARK   37  A    between atoms: _84  and  _87
REMARK   38  A    between atoms: _87  and  _88
REMARK   39  A    between atoms: _88  and  _89
REMARK   40  A    between atoms: _94  and  _96
REMARK   41  A    between atoms: _96  and  _97
REMARK   42  A    between atoms: _96  and  _99
REMARK   43  A    between atoms: _99  and  _100
REMARK   44  A    between atoms: _103  and  _105
REMARK   45  A    between atoms: _105  and  _106
REMARK   46  A    between atoms: _109  and  _111
REMARK   47  A    between atoms: _111  and  _112
REMARK   48  A    between atoms: _114  and  _116
REMARK   49  A    between atoms: _116  and  _117
REMARK   50  A    between atoms: _116  and  _119
REMARK   51  A    between atoms: _119  and  _120
REMARK   52  A    between atoms: _120  and  _121
REMARK   53  A    between atoms: _121  and  _122
REMARK   54  A    between atoms: _131  and  _133
REMARK   55  A    between atoms: _133  and  _134
REMARK   56  A    between atoms: _136  and  _138
REMARK   57  A    between atoms: _138  and  _139
REMARK   58  A    between atoms: _138  and  _141
REMARK   59  A    between atoms: _141  and  _142
REMARK   60  A    between atoms: _142  and  _143
REMARK   61  A    between atoms: _143  and  _144
REMARK   62  A    between atoms: _153  and  _155
REMARK   63  A    between atoms: _155  and  _156
REMARK   64  A    between atoms: _155  and  _158
REMARK   65  A    between atoms: _158  and  _159
REMARK   66  A    between atoms: _164  and  _166
REMARK   67  A    between atoms: _166  and  _167
REMARK   68  A    between atoms: _169  and  _171
REMARK   69  A    between atoms: _171  and  _172
REMARK   70  A    between atoms: _171  and  _174
REMARK   71  A    between atoms: _174  and  _175
REMARK   72  A    between atoms: _175  and  _176
REMARK   73  A    between atoms: _176  and  _177
REMARK   74  A    between atoms: _186  and  _188
REMARK   75  A    between atoms: _188  and  _189
REMARK   76  A    between atoms: _191  and  _193
REMARK   77  A    between atoms: _193  and  _194
REMARK   78  A    between atoms: _193  and  _196
REMARK   79  A    between atoms: _196  and  _197
REMARK   80  A    between atoms: _207  and  _209
REMARK   81  A    between atoms: _209  and  _210
REMARK   82  A    between atoms: _213  and  _215
REMARK   83  A    between atoms: _215  and  _216
REMARK   84  A    between atoms: _219  and  _221
REMARK   85  A    between atoms: _221  and  _222
REMARK   86  A    between atoms: _221  and  _224
REMARK   87  A    between atoms: _224  and  _225
REMARK   88  A    between atoms: _228  and  _230
REMARK   89  A    between atoms: _230  and  _231
REMARK   90  A    between atoms: _230  and  _233
REMARK   91  A    between atoms: _233  and  _234
REMARK   92  A    between atoms: _234  and  _235
REMARK   93  A    between atoms: _240  and  _242
REMARK   94  A    between atoms: _242  and  _243
REMARK   95  A    between atoms: _242  and  _245
REMARK   96  A    between atoms: _245  and  _246
REMARK   97  A    between atoms: _249  and  _251
REMARK   98  A    between atoms: _251  and  _252
REMARK   99  A    between atoms: _251  and  _254
REMARK  100  A    between atoms: _254  and  _255
REMARK  101  A    between atoms: _258  and  _260
REMARK  102  A    between atoms: _260  and  _261
REMARK  103  A    between atoms: _260  and  _263
REMARK  104  A    between atoms: _263  and  _264
REMARK  105  A    between atoms: _267  and  _269
REMARK  106  A    between atoms: _269  and  _270
REMARK  107  A    between atoms: _269  and  _272
REMARK  108  A    between atoms: _272  and  _273
REMARK  109  A    between atoms: _275  and  _277
REMARK  110  A    between atoms: _277  and  _278
REMARK  111  A    between atoms: _277  and  _280
REMARK  112  A    between atoms: _283  and  _285
REMARK  113  A    between atoms: _285  and  _286
REMARK  114  A    between atoms: _285  and  _288
REMARK  115  A    between atoms: _288  and  _289
REMARK  116  A    between atoms: _289  and  _290
REMARK  117  A    between atoms: _290  and  _291
REMARK  118  A    between atoms: _291  and  _292
REMARK  119  A    between atoms: _297  and  _298
REMARK  120  A    between atoms: _303  and  _305
REMARK  121  A    between atoms: _305  and  _306
REMARK  122  A    between atoms: _305  and  _308
REMARK  123  A    between atoms: _308  and  _309
REMARK  124  A    between atoms: _314  and  _316
REMARK  125  A    between atoms: _316  and  _317
REMARK  126  A    between atoms: _316  and  _319
REMARK  127  A    between atoms: _319  and  _320
REMARK  128  A    between atoms: _323  and  _325
REMARK  129  A    between atoms: _325  and  _326
REMARK  130  A    between atoms: _325  and  _328
REMARK  131  A    between atoms: _331  and  _333
REMARK  132  A    between atoms: _333  and  _334
REMARK  133  A    between atoms: _336  and  _338
REMARK  134  A    between atoms: _338  and  _339
REMARK  135  A    between atoms: _338  and  _341
REMARK  136  A    between atoms: _341  and  _342
REMARK  137  A    between atoms: _342  and  _343
REMARK  138  A    between atoms: _343  and  _344
REMARK  139  A    between atoms: _344  and  _345
REMARK  140  A    between atoms: _349  and  _351
REMARK  141  A    between atoms: _351  and  _352
REMARK  142  A    between atoms: _351  and  _354
REMARK  143  A    between atoms: _354  and  _355
REMARK  144  A    between atoms: _358  and  _360
REMARK  145  A    between atoms: _360  and  _361
REMARK  146  A    between atoms: _364  and  _366
REMARK  147  A    between atoms: _366  and  _367
REMARK  148  A    between atoms: _369  and  _371
REMARK  149  A    between atoms: _371  and  _372
REMARK  150  A    between atoms: _371  and  _374
REMARK  151  A    between atoms: _374  and  _375
REMARK  152  A    between atoms: _378  and  _380
REMARK  153  A    between atoms: _380  and  _381
REMARK  154  A    between atoms: _380  and  _383
REMARK  155  A    between atoms: _383  and  _384
REMARK  156  A    between atoms: _387  and  _389
REMARK  157  A    between atoms: _389  and  _390
REMARK  158  A    between atoms: _393  and  _395
REMARK  159  A    between atoms: _395  and  _396
REMARK  160  A    between atoms: _395  and  _398
REMARK  161  A    between atoms: _398  and  _399
REMARK  162  A    between atoms: _399  and  _400
REMARK  163  A    between atoms: _403  and  _405
REMARK  164  A    between atoms: _405  and  _406
REMARK  165  A    between atoms: _405  and  _408
REMARK  166  A    between atoms: _411  and  _413
REMARK  167  A    between atoms: _413  and  _414
REMARK  168  A    between atoms: _413  and  _416
REMARK  169  A    between atoms: _416  and  _417
REMARK  170  A    between atoms: _420  and  _422
REMARK  171  A    between atoms: _422  and  _423
REMARK  172  A    between atoms: _425  and  _427
REMARK  173  A    between atoms: _427  and  _428
REMARK  174  A    between atoms: _427  and  _430
REMARK  175  A    between atoms: _433  and  _435
REMARK  176  A    between atoms: _435  and  _436
REMARK  177  A    between atoms: _438  and  _440
REMARK  178  A    between atoms: _440  and  _441
REMARK  179  A    between atoms: _440  and  _443
REMARK  180  A    between atoms: _443  and  _444
REMARK  181  A    between atoms: _447  and  _449
REMARK  182  A    between atoms: _449  and  _450
REMARK  183  A    between atoms: _449  and  _452
REMARK  184  A    between atoms: _452  and  _453
REMARK  185  A    between atoms: _458  and  _460
REMARK  186  A    between atoms: _460  and  _461
REMARK  187  A    between atoms: _460  and  _463
REMARK  188  A    between atoms: _466  and  _468
REMARK  189  A    between atoms: _468  and  _469
REMARK  190  A    between atoms: _468  and  _471
REMARK  191  A    between atoms: _471  and  _472
REMARK  192  A    between atoms: _472  and  _473
REMARK  193  A    between atoms: _478  and  _480
REMARK  194  A    between atoms: _480  and  _481
REMARK  195  A    between atoms: _485  and  _486
REMARK  196  A    between atoms: _491  and  _493
REMARK  197  A    between atoms: _493  and  _494
REMARK  198  A    between atoms: _493  and  _496
REMARK  199  A    between atoms: _496  and  _497
REMARK  200  A    between atoms: _497  and  _498
REMARK  201  A    between atoms: _501  and  _503
REMARK  202  A    between atoms: _503  and  _504
REMARK  203  A    between atoms: _503  and  _506
REMARK  204  A    between atoms: _509  and  _511
REMARK  205  A    between atoms: _511  and  _512
REMARK  206  A    between atoms: _511  and  _514
REMARK  207  A    between atoms: _514  and  _515
REMARK  208  A    between atoms: _519  and  _520
REMARK  209  A    between atoms: _525  and  _527
REMARK  210  A    between atoms: _527  and  _528
REMARK  211  A    between atoms: _527  and  _530
REMARK  212  A    between atoms: _530  and  _531
REMARK  213  A    between atoms: _534  and  _536
REMARK  214  A    between atoms: _536  and  _537
REMARK  215  A    between atoms: _540  and  _542
REMARK  216  A    between atoms: _542  and  _543
REMARK  217  A    between atoms: _542  and  _545
REMARK  218  A    between atoms: _545  and  _546
REMARK  219  A    between atoms: _549  and  _551
REMARK  220  A    between atoms: _551  and  _552
REMARK  221  A    between atoms: _551  and  _554
REMARK  222  A    between atoms: _554  and  _555
REMARK  223  A    between atoms: _557  and  _559
REMARK  224  A    between atoms: _559  and  _560
REMARK  225  A    between atoms: _562  and  _564
REMARK  226  A    between atoms: _564  and  _565
REMARK  227  A    between atoms: _564  and  _567
REMARK  228  A    between atoms: _567  and  _568
REMARK  229  A    between atoms: _571  and  _573
REMARK  230  A    between atoms: _573  and  _574
REMARK  231  A    between atoms: _573  and  _576
REMARK                            x       y       z     vdW  Elec       q    Type
REMARK                         _______ _______ _______ _____ _____    ______ ____
ROOT
ATOM      1  O   HOH     1       4.963  -1.203  10.918  0.00  0.00    +0.000 OA
ENDROOT
TORSDOF 0
REMARK  Name = ../refined-set-2016/4xu2/4xu2_pocket.pdb
REMARK  231 active torsions:
REMARK  status: ('A' for Active; 'I' for Inactive)
REMARK    1  A    between atoms: _1  and  _3
REMARK    2  A    between atoms: _3  and  _4
REMARK    3  A    between atoms: _3  and  _6
REMARK    4  A    between atoms: _6  and  _7
REMARK    5  A    between atoms: _10  and  _12
REMARK    6  A    between atoms: _12  and  _13
REMARK    7  A    between atoms: _15  and  _17
REMARK    8  A    between atoms: _17  and  _18
REMARK    9  A    between atoms: _17  and  _20
REMARK   10  A    between atoms: _20  and  _21
REMARK   11  A    between atoms: _23  and  _25
REMARK   12  A    between atoms: _25  and  _26
REMARK   13  A    between atoms: _25  and  _28
REMARK   14  A    between atoms: _28  and  _29
REMARK   15  A    between atoms: _32  and  _34
REMARK   16  A    between atoms: _34  and  _35
REMARK   17  A    between atoms: _34  and  _37
REMARK   18  A    between atoms: _37  and  _38
REMARK   19  A    between atoms: _43  and  _45
REMARK   20  A    between atoms: _45  and  _46
REMARK   21  A    between atoms: _49  and  _51
REMARK   22  A    between atoms: _51  and  _52
REMARK   23  A    between atoms: _51  and  _54
REMARK   24  A    between atoms: _54  and  _55
REMARK   25  A    between atoms: _58  and  _60
REMARK   26  A    between atoms: _60  and  _61
REMARK   27  A    between atoms: _60  and  _63
REMARK   28  A    between atoms: _63  and  _64
REMARK   29  A    between atoms: _67  and  _69
REMARK   30  A    between atoms: _69  and  _70
REMARK   31  A    between atoms: _69  and  _72
REMARK   32  A    between atoms: _72  and  _73
REMARK   33  A    between atoms: _76  and  _78
REMARK   34  A    between atoms: _78  and  _79
REMARK   35  A    between atoms: _82  and  _84
REMARK   36  A    between atoms: _84  and  _85
REMARK   37  A    between atoms: _84  and  _87
REMARK   38  A    between atoms: _87  and  _88
REMARK   39  A    between atoms: _88  and  _89
REMARK   40  A    between atoms: _94  and  _96
REMARK   41  A    between atoms: _96  and  _97
REMARK   42  A    between atoms: _96  and  _99
REMARK   43  A    between atoms: _99  and  _100
REMARK   44  A    between atoms: _103  and  _105
REMARK   45  A    between atoms: _105  and  _106
REMARK   46  A    between atoms: _109  and  _111
REMARK   47  A    between atoms: _111  and  _112
REMARK   48  A    between atoms: _114  and  _116
REMARK   49  A    between atoms: _116  and  _117
REMARK   50  A    between atoms: _116  and  _119
REMARK   51  A    between atoms: _119  and  _120
REMARK   52  A    between atoms: _120  and  _121
REMARK   53  A    between atoms: _121  and  _122
REMARK   54  A    between atoms: _131  and  _133
REMARK   55  A    between atoms: _133  and  _134
REMARK   56  A    between atoms: _136  and  _138
REMARK   57  A    between atoms: _138  and  _139
REMARK   58  A    between atoms: _138  and  _141
REMARK   59  A    between atoms: _141  and  _142
REMARK   60  A    between atoms: _142  and  _143
REMARK   61  A    between atoms: _143  and  _144
REMARK   62  A    between atoms: _153  and  _155
REMARK   63  A    between atoms: _155  and  _156
REMARK   64  A    between atoms: _155  and  _158
REMARK   65  A    between atoms: _158  and  _159
REMARK   66  A    between atoms: _164  and  _166
REMARK   67  A    between atoms: _166  and  _167
REMARK   68  A    between atoms: _169  and  _171
REMARK   69  A    between atoms: _171  and  _172
REMARK   70  A    between atoms: _171  and  _174
REMARK   71  A    between atoms: _174  and  _175
REMARK   72  A    between atoms: _175  and  _176
REMARK   73  A    between atoms: _176  and  _177
REMARK   74  A    between atoms: _186  and  _188
REMARK   75  A    between atoms: _188  and  _189
REMARK   76  A    between atoms: _191  and  _193
REMARK   77  A    between atoms: _193  and  _194
REMARK   78  A    between atoms: _193  and  _196
REMARK   79  A    between atoms: _196  and  _197
REMARK   80  A    between atoms: _207  and  _209
REMARK   81  A    between atoms: _209  and  _210
REMARK   82  A    between atoms: _213  and  _215
REMARK   83  A    between atoms: _215  and  _216
REMARK   84  A    between atoms: _219  and  _221
REMARK   85  A    between atoms: _221  and  _222
REMARK   86  A    between atoms: _221  and  _224
REMARK   87  A    between atoms: _224  and  _225
REMARK   88  A    between atoms: _228  and  _230
REMARK   89  A    between atoms: _230  and  _231
REMARK   90  A    between atoms: _230  and  _233
REMARK   91  A    between atoms: _233  and  _234
REMARK   92  A    between atoms: _234  and  _235
REMARK   93  A    between atoms: _240  and  _242
REMARK   94  A    between atoms: _242  and  _243
REMARK   95  A    between atoms: _242  and  _245
REMARK   96  A    between atoms: _245  and  _246
REMARK   97  A    between atoms: _249  and  _251
REMARK   98  A    between atoms: _251  and  _252
REMARK   99  A    between atoms: _251  and  _254
REMARK  100  A    between atoms: _254  and  _255
REMARK  101  A    between atoms: _258  and  _260
REMARK  102  A    between atoms: _260  and  _261
REMARK  103  A    between atoms: _260  and  _263
REMARK  104  A    between atoms: _263  and  _264
REMARK  105  A    between atoms: _267  and  _269
REMARK  106  A    between atoms: _269  and  _270
REMARK  107  A    between atoms: _269  and  _272
REMARK  108  A    between atoms: _272  and  _273
REMARK  109  A    between atoms: _275  and  _277
REMARK  110  A    between atoms: _277  and  _278
REMARK  111  A    between atoms: _277  and  _280
REMARK  112  A    between atoms: _283  and  _285
REMARK  113  A    between atoms: _285  and  _286
REMARK  114  A    between atoms: _285  and  _288
REMARK  115  A    between atoms: _288  and  _289
REMARK  116  A    between atoms: _289  and  _290
REMARK  117  A    between atoms: _290  and  _291
REMARK  118  A    between atoms: _291  and  _292
REMARK  119  A    between atoms: _297  and  _298
REMARK  120  A    between atoms: _303  and  _305
REMARK  121  A    between atoms: _305  and  _306
REMARK  122  A    between atoms: _305  and  _308
REMARK  123  A    between atoms: _308  and  _309
REMARK  124  A    between atoms: _314  and  _316
REMARK  125  A    between atoms: _316  and  _317
REMARK  126  A    between atoms: _316  and  _319
REMARK  127  A    between atoms: _319  and  _320
REMARK  128  A    between atoms: _323  and  _325
REMARK  129  A    between atoms: _325  and  _326
REMARK  130  A    between atoms: _325  and  _328
REMARK  131  A    between atoms: _331  and  _333
REMARK  132  A    between atoms: _333  and  _334
REMARK  133  A    between atoms: _336  and  _338
REMARK  134  A    between atoms: _338  and  _339
REMARK  135  A    between atoms: _338  and  _341
REMARK  136  A    between atoms: _341  and  _342
REMARK  137  A    between atoms: _342  and  _343
REMARK  138  A    between atoms: _343  and  _344
REMARK  139  A    between atoms: _344  and  _345
REMARK  140  A    between atoms: _349  and  _351
REMARK  141  A    between atoms: _351  and  _352
REMARK  142  A    between atoms: _351  and  _354
REMARK  143  A    between atoms: _354  and  _355
REMARK  144  A    between atoms: _358  and  _360
REMARK  145  A    between atoms: _360  and  _361
REMARK  146  A    between atoms: _364  and  _366
REMARK  147  A    between atoms: _366  and  _367
REMARK  148  A    between atoms: _369  and  _371
REMARK  149  A    between atoms: _371  and  _372
REMARK  150  A    between atoms: _371  and  _374
REMARK  151  A    between atoms: _374  and  _375
REMARK  152  A    between atoms: _378  and  _380
REMARK  153  A    between atoms: _380  and  _381
REMARK  154  A    between atoms: _380  and  _383
REMARK  155  A    between atoms: _383  and  _384
REMARK  156  A    between atoms: _387  and  _389
REMARK  157  A    between atoms: _389  and  _390
REMARK  158  A    between atoms: _393  and  _395
REMARK  159  A    between atoms: _395  and  _396
REMARK  160  A    between atoms: _395  and  _398
REMARK  161  A    between atoms: _398  and  _399
REMARK  162  A    between atoms: _399  and  _400
REMARK  163  A    between atoms: _403  and  _405
REMARK  164  A    between atoms: _405  and  _406
REMARK  165  A    between atoms: _405  and  _408
REMARK  166  A    between atoms: _411  and  _413
REMARK  167  A    between atoms: _413  and  _414
REMARK  168  A    between atoms: _413  and  _416
REMARK  169  A    between atoms: _416  and  _417
REMARK  170  A    between atoms: _420  and  _422
REMARK  171  A    between atoms: _422  and  _423
REMARK  172  A    between atoms: _425  and  _427
REMARK  173  A    between atoms: _427  and  _428
REMARK  174  A    between atoms: _427  and  _430
REMARK  175  A    between atoms: _433  and  _435
REMARK  176  A    between atoms: _435  and  _436
REMARK  177  A    between atoms: _438  and  _440
REMARK  178  A    between atoms: _440  and  _441
REMARK  179  A    between atoms: _440  and  _443
REMARK  180  A    between atoms: _443  and  _444
REMARK  181  A    between atoms: _447  and  _449
REMARK  182  A    between atoms: _449  and  _450
REMARK  183  A    between atoms: _449  and  _452
REMARK  184  A    between atoms: _452  and  _453
REMARK  185  A    between atoms: _458  and  _460
REMARK  186  A    between atoms: _460  and  _461
REMARK  187  A    between atoms: _460  and  _463
REMARK  188  A    between atoms: _466  and  _468
REMARK  189  A    between atoms: _468  and  _469
REMARK  190  A    between atoms: _468  and  _471
REMARK  191  A    between atoms: _471  and  _472
REMARK  192  A    between atoms: _472  and  _473
REMARK  193  A    between atoms: _478  and  _480
REMARK  194  A    between atoms: _480  and  _481
REMARK  195  A    between atoms: _485  and  _486
REMARK  196  A    between atoms: _491  and  _493
REMARK  197  A    between atoms: _493  and  _494
REMARK  198  A    between atoms: _493  and  _496
REMARK  199  A    between atoms: _496  and  _497
REMARK  200  A    between atoms: _497  and  _498
REMARK  201  A    between atoms: _501  and  _503
REMARK  202  A    between atoms: _503  and  _504
REMARK  203  A    between atoms: _503  and  _506
REMARK  204  A    between atoms: _509  and  _511
REMARK  205  A    between atoms: _511  and  _512
REMARK  206  A    between atoms: _511  and  _514
REMARK  207  A    between atoms: _514  and  _515
REMARK  208  A    between atoms: _519  and  _520
REMARK  209  A    between atoms: _525  and  _527
REMARK  210  A    between atoms: _527  and  _528
REMARK  211  A    between atoms: _527  and  _530
REMARK  212  A    between atoms: _530  and  _531
REMARK  213  A    between atoms: _534  and  _536
REMARK  214  A    between atoms: _536  and  _537
REMARK  215  A    between atoms: _540  and  _542
REMARK  216  A    between atoms: _542  and  _543
REMARK  217  A    between atoms: _542  and  _545
REMARK  218  A    between atoms: _545  and  _546
REMARK  219  A    between atoms: _549  and  _551
REMARK  220  A    between atoms: _551  and  _552
REMARK  221  A    between atoms: _551  and  _554
REMARK  222  A    between atoms: _554  and  _555
REMARK  223  A    between atoms: _557  and  _559
REMARK  224  A    between atoms: _559  and  _560
REMARK  225  A    between atoms: _562  and  _564
REMARK  226  A    between atoms: _564  and  _565
REMARK  227  A    between atoms: _564  and  _567
REMARK  228  A    between atoms: _567  and  _568
REMARK  229  A    between atoms: _571  and  _573
REMARK  230  A    between atoms: _573  and  _574
REMARK  231  A    between atoms: _573  and  _576
REMARK                            x       y       z     vdW  Elec       q    Type
REMARK                         _______ _______ _______ _____ _____    ______ ____
ROOT
ATOM      1  O   HOH     1      -0.079   1.511   6.338  0.00  0.00    +0.000 OA
ENDROOT
TORSDOF 0
REMARK  Name = ../refined-set-2016/4xu2/4xu2_pocket.pdb
REMARK  231 active torsions:
REMARK  status: ('A' for Active; 'I' for Inactive)
REMARK    1  A    between atoms: _1  and  _3
REMARK    2  A    between atoms: _3  and  _4
REMARK    3  A    between atoms: _3  and  _6
REMARK    4  A    between atoms: _6  and  _7
REMARK    5  A    between atoms: _10  and  _12
REMARK    6  A    between atoms: _12  and  _13
REMARK    7  A    between atoms: _15  and  _17
REMARK    8  A    between atoms: _17  and  _18
REMARK    9  A    between atoms: _17  and  _20
REMARK   10  A    between atoms: _20  and  _21
REMARK   11  A    between atoms: _23  and  _25
REMARK   12  A    between atoms: _25  and  _26
REMARK   13  A    between atoms: _25  and  _28
REMARK   14  A    between atoms: _28  and  _29
REMARK   15  A    between atoms: _32  and  _34
REMARK   16  A    between atoms: _34  and  _35
REMARK   17  A    between atoms: _34  and  _37
REMARK   18  A    between atoms: _37  and  _38
REMARK   19  A    between atoms: _43  and  _45
REMARK   20  A    between atoms: _45  and  _46
REMARK   21  A    between atoms: _49  and  _51
REMARK   22  A    between atoms: _51  and  _52
REMARK   23  A    between atoms: _51  and  _54
REMARK   24  A    between atoms: _54  and  _55
REMARK   25  A    between atoms: _58  and  _60
REMARK   26  A    between atoms: _60  and  _61
REMARK   27  A    between atoms: _60  and  _63
REMARK   28  A    between atoms: _63  and  _64
REMARK   29  A    between atoms: _67  and  _69
REMARK   30  A    between atoms: _69  and  _70
REMARK   31  A    between atoms: _69  and  _72
REMARK   32  A    between atoms: _72  and  _73
REMARK   33  A    between atoms: _76  and  _78
REMARK   34  A    between atoms: _78  and  _79
REMARK   35  A    between atoms: _82  and  _84
REMARK   36  A    between atoms: _84  and  _85
REMARK   37  A    between atoms: _84  and  _87
REMARK   38  A    between atoms: _87  and  _88
REMARK   39  A    between atoms: _88  and  _89
REMARK   40  A    between atoms: _94  and  _96
REMARK   41  A    between atoms: _96  and  _97
REMARK   42  A    between atoms: _96  and  _99
REMARK   43  A    between atoms: _99  and  _100
REMARK   44  A    between atoms: _103  and  _105
REMARK   45  A    between atoms: _105  and  _106
REMARK   46  A    between atoms: _109  and  _111
REMARK   47  A    between atoms: _111  and  _112
REMARK   48  A    between atoms: _114  and  _116
REMARK   49  A    between atoms: _116  and  _117
REMARK   50  A    between atoms: _116  and  _119
REMARK   51  A    between atoms: _119  and  _120
REMARK   52  A    between atoms: _120  and  _121
REMARK   53  A    between atoms: _121  and  _122
REMARK   54  A    between atoms: _131  and  _133
REMARK   55  A    between atoms: _133  and  _134
REMARK   56  A    between atoms: _136  and  _138
REMARK   57  A    between atoms: _138  and  _139
REMARK   58  A    between atoms: _138  and  _141
REMARK   59  A    between atoms: _141  and  _142
REMARK   60  A    between atoms: _142  and  _143
REMARK   61  A    between atoms: _143  and  _144
REMARK   62  A    between atoms: _153  and  _155
REMARK   63  A    between atoms: _155  and  _156
REMARK   64  A    between atoms: _155  and  _158
REMARK   65  A    between atoms: _158  and  _159
REMARK   66  A    between atoms: _164  and  _166
REMARK   67  A    between atoms: _166  and  _167
REMARK   68  A    between atoms: _169  and  _171
REMARK   69  A    between atoms: _171  and  _172
REMARK   70  A    between atoms: _171  and  _174
REMARK   71  A    between atoms: _174  and  _175
REMARK   72  A    between atoms: _175  and  _176
REMARK   73  A    between atoms: _176  and  _177
REMARK   74  A    between atoms: _186  and  _188
REMARK   75  A    between atoms: _188  and  _189
REMARK   76  A    between atoms: _191  and  _193
REMARK   77  A    between atoms: _193  and  _194
REMARK   78  A    between atoms: _193  and  _196
REMARK   79  A    between atoms: _196  and  _197
REMARK   80  A    between atoms: _207  and  _209
REMARK   81  A    between atoms: _209  and  _210
REMARK   82  A    between atoms: _213  and  _215
REMARK   83  A    between atoms: _215  and  _216
REMARK   84  A    between atoms: _219  and  _221
REMARK   85  A    between atoms: _221  and  _222
REMARK   86  A    between atoms: _221  and  _224
REMARK   87  A    between atoms: _224  and  _225
REMARK   88  A    between atoms: _228  and  _230
REMARK   89  A    between atoms: _230  and  _231
REMARK   90  A    between atoms: _230  and  _233
REMARK   91  A    between atoms: _233  and  _234
REMARK   92  A    between atoms: _234  and  _235
REMARK   93  A    between atoms: _240  and  _242
REMARK   94  A    between atoms: _242  and  _243
REMARK   95  A    between atoms: _242  and  _245
REMARK   96  A    between atoms: _245  and  _246
REMARK   97  A    between atoms: _249  and  _251
REMARK   98  A    between atoms: _251  and  _252
REMARK   99  A    between atoms: _251  and  _254
REMARK  100  A    between atoms: _254  and  _255
REMARK  101  A    between atoms: _258  and  _260
REMARK  102  A    between atoms: _260  and  _261
REMARK  103  A    between atoms: _260  and  _263
REMARK  104  A    between atoms: _263  and  _264
REMARK  105  A    between atoms: _267  and  _269
REMARK  106  A    between atoms: _269  and  _270
REMARK  107  A    between atoms: _269  and  _272
REMARK  108  A    between atoms: _272  and  _273
REMARK  109  A    between atoms: _275  and  _277
REMARK  110  A    between atoms: _277  and  _278
REMARK  111  A    between atoms: _277  and  _280
REMARK  112  A    between atoms: _283  and  _285
REMARK  113  A    between atoms: _285  and  _286
REMARK  114  A    between atoms: _285  and  _288
REMARK  115  A    between atoms: _288  and  _289
REMARK  116  A    between atoms: _289  and  _290
REMARK  117  A    between atoms: _290  and  _291
REMARK  118  A    between atoms: _291  and  _292
REMARK  119  A    between atoms: _297  and  _298
REMARK  120  A    between atoms: _303  and  _305
REMARK  121  A    between atoms: _305  and  _306
REMARK  122  A    between atoms: _305  and  _308
REMARK  123  A    between atoms: _308  and  _309
REMARK  124  A    between atoms: _314  and  _316
REMARK  125  A    between atoms: _316  and  _317
REMARK  126  A    between atoms: _316  and  _319
REMARK  127  A    between atoms: _319  and  _320
REMARK  128  A    between atoms: _323  and  _325
REMARK  129  A    between atoms: _325  and  _326
REMARK  130  A    between atoms: _325  and  _328
REMARK  131  A    between atoms: _331  and  _333
REMARK  132  A    between atoms: _333  and  _334
REMARK  133  A    between atoms: _336  and  _338
REMARK  134  A    between atoms: _338  and  _339
REMARK  135  A    between atoms: _338  and  _341
REMARK  136  A    between atoms: _341  and  _342
REMARK  137  A    between atoms: _342  and  _343
REMARK  138  A    between atoms: _343  and  _344
REMARK  139  A    between atoms: _344  and  _345
REMARK  140  A    between atoms: _349  and  _351
REMARK  141  A    between atoms: _351  and  _352
REMARK  142  A    between atoms: _351  and  _354
REMARK  143  A    between atoms: _354  and  _355
REMARK  144  A    between atoms: _358  and  _360
REMARK  145  A    between atoms: _360  and  _361
REMARK  146  A    between atoms: _364  and  _366
REMARK  147  A    between atoms: _366  and  _367
REMARK  148  A    between atoms: _369  and  _371
REMARK  149  A    between atoms: _371  and  _372
REMARK  150  A    between atoms: _371  and  _374
REMARK  151  A    between atoms: _374  and  _375
REMARK  152  A    between atoms: _378  and  _380
REMARK  153  A    between atoms: _380  and  _381
REMARK  154  A    between atoms: _380  and  _383
REMARK  155  A    between atoms: _383  and  _384
REMARK  156  A    between atoms: _387  and  _389
REMARK  157  A    between atoms: _389  and  _390
REMARK  158  A    between atoms: _393  and  _395
REMARK  159  A    between atoms: _395  and  _396
REMARK  160  A    between atoms: _395  and  _398
REMARK  161  A    between atoms: _398  and  _399
REMARK  162  A    between atoms: _399  and  _400
REMARK  163  A    between atoms: _403  and  _405
REMARK  164  A    between atoms: _405  and  _406
REMARK  165  A    between atoms: _405  and  _408
REMARK  166  A    between atoms: _411  and  _413
REMARK  167  A    between atoms: _413  and  _414
REMARK  168  A    between atoms: _413  and  _416
REMARK  169  A    between atoms: _416  and  _417
REMARK  170  A    between atoms: _420  and  _422
REMARK  171  A    between atoms: _422  and  _423
REMARK  172  A    between atoms: _425  and  _427
REMARK  173  A    between atoms: _427  and  _428
REMARK  174  A    between atoms: _427  and  _430
REMARK  175  A    between atoms: _433  and  _435
REMARK  176  A    between atoms: _435  and  _436
REMARK  177  A    between atoms: _438  and  _440
REMARK  178  A    between atoms: _440  and  _441
REMARK  179  A    between atoms: _440  and  _443
REMARK  180  A    between atoms: _443  and  _444
REMARK  181  A    between atoms: _447  and  _449
REMARK  182  A    between atoms: _449  and  _450
REMARK  183  A    between atoms: _449  and  _452
REMARK  184  A    between atoms: _452  and  _453
REMARK  185  A    between atoms: _458  and  _460
REMARK  186  A    between atoms: _460  and  _461
REMARK  187  A    between atoms: _460  and  _463
REMARK  188  A    between atoms: _466  and  _468
REMARK  189  A    between atoms: _468  and  _469
REMARK  190  A    between atoms: _468  and  _471
REMARK  191  A    between atoms: _471  and  _472
REMARK  192  A    between atoms: _472  and  _473
REMARK  193  A    between atoms: _478  and  _480
REMARK  194  A    between atoms: _480  and  _481
REMARK  195  A    between atoms: _485  and  _486
REMARK  196  A    between atoms: _491  and  _493
REMARK  197  A    between atoms: _493  and  _494
REMARK  198  A    between atoms: _493  and  _496
REMARK  199  A    between atoms: _496  and  _497
REMARK  200  A    between atoms: _497  and  _498
REMARK  201  A    between atoms: _501  and  _503
REMARK  202  A    between atoms: _503  and  _504
REMARK  203  A    between atoms: _503  and  _506
REMARK  204  A    between atoms: _509  and  _511
REMARK  205  A    between atoms: _511  and  _512
REMARK  206  A    between atoms: _511  and  _514
REMARK  207  A    between atoms: _514  and  _515
REMARK  208  A    between atoms: _519  and  _520
REMARK  209  A    between atoms: _525  and  _527
REMARK  210  A    between atoms: _527  and  _528
REMARK  211  A    between atoms: _527  and  _530
REMARK  212  A    between atoms: _530  and  _531
REMARK  213  A    between atoms: _534  and  _536
REMARK  214  A    between atoms: _536  and  _537
REMARK  215  A    between atoms: _540  and  _542
REMARK  216  A    between atoms: _542  and  _543
REMARK  217  A    between atoms: _542  and  _545
REMARK  218  A    between atoms: _545  and  _546
REMARK  219  A    between atoms: _549  and  _551
REMARK  220  A    between atoms: _551  and  _552
REMARK  221  A    between atoms: _551  and  _554
REMARK  222  A    between atoms: _554  and  _555
REMARK  223  A    between atoms: _557  and  _559
REMARK  224  A    between atoms: _559  and  _560
REMARK  225  A    between atoms: _562  and  _564
REMARK  226  A    between atoms: _564  and  _565
REMARK  227  A    between atoms: _564  and  _567
REMARK  228  A    between atoms: _567  and  _568
REMARK  229  A    between atoms: _571  and  _573
REMARK  230  A    between atoms: _573  and  _574
REMARK  231  A    between atoms: _573  and  _576
REMARK                            x       y       z     vdW  Elec       q    Type
REMARK                         _______ _______ _______ _____ _____    ______ ____
ROOT
ATOM      1  O   HOH     1       0.890 -10.050   3.306  0.00  0.00    +0.000 OA
ENDROOT
TORSDOF 0
REMARK  Name = ../refined-set-2016/4xu2/4xu2_pocket.pdb
REMARK  231 active torsions:
REMARK  status: ('A' for Active; 'I' for Inactive)
REMARK    1  A    between atoms: _1  and  _3
REMARK    2  A    between atoms: _3  and  _4
REMARK    3  A    between atoms: _3  and  _6
REMARK    4  A    between atoms: _6  and  _7
REMARK    5  A    between atoms: _10  and  _12
REMARK    6  A    between atoms: _12  and  _13
REMARK    7  A    between atoms: _15  and  _17
REMARK    8  A    between atoms: _17  and  _18
REMARK    9  A    between atoms: _17  and  _20
REMARK   10  A    between atoms: _20  and  _21
REMARK   11  A    between atoms: _23  and  _25
REMARK   12  A    between atoms: _25  and  _26
REMARK   13  A    between atoms: _25  and  _28
REMARK   14  A    between atoms: _28  and  _29
REMARK   15  A    between atoms: _32  and  _34
REMARK   16  A    between atoms: _34  and  _35
REMARK   17  A    between atoms: _34  and  _37
REMARK   18  A    between atoms: _37  and  _38
REMARK   19  A    between atoms: _43  and  _45
REMARK   20  A    between atoms: _45  and  _46
REMARK   21  A    between atoms: _49  and  _51
REMARK   22  A    between atoms: _51  and  _52
REMARK   23  A    between atoms: _51  and  _54
REMARK   24  A    between atoms: _54  and  _55
REMARK   25  A    between atoms: _58  and  _60
REMARK   26  A    between atoms: _60  and  _61
REMARK   27  A    between atoms: _60  and  _63
REMARK   28  A    between atoms: _63  and  _64
REMARK   29  A    between atoms: _67  and  _69
REMARK   30  A    between atoms: _69  and  _70
REMARK   31  A    between atoms: _69  and  _72
REMARK   32  A    between atoms: _72  and  _73
REMARK   33  A    between atoms: _76  and  _78
REMARK   34  A    between atoms: _78  and  _79
REMARK   35  A    between atoms: _82  and  _84
REMARK   36  A    between atoms: _84  and  _85
REMARK   37  A    between atoms: _84  and  _87
REMARK   38  A    between atoms: _87  and  _88
REMARK   39  A    between atoms: _88  and  _89
REMARK   40  A    between atoms: _94  and  _96
REMARK   41  A    between atoms: _96  and  _97
REMARK   42  A    between atoms: _96  and  _99
REMARK   43  A    between atoms: _99  and  _100
REMARK   44  A    between atoms: _103  and  _105
REMARK   45  A    between atoms: _105  and  _106
REMARK   46  A    between atoms: _109  and  _111
REMARK   47  A    between atoms: _111  and  _112
REMARK   48  A    between atoms: _114  and  _116
REMARK   49  A    between atoms: _116  and  _117
REMARK   50  A    between atoms: _116  and  _119
REMARK   51  A    between atoms: _119  and  _120
REMARK   52  A    between atoms: _120  and  _121
REMARK   53  A    between atoms: _121  and  _122
REMARK   54  A    between atoms: _131  and  _133
REMARK   55  A    between atoms: _133  and  _134
REMARK   56  A    between atoms: _136  and  _138
REMARK   57  A    between atoms: _138  and  _139
REMARK   58  A    between atoms: _138  and  _141
REMARK   59  A    between atoms: _141  and  _142
REMARK   60  A    between atoms: _142  and  _143
REMARK   61  A    between atoms: _143  and  _144
REMARK   62  A    between atoms: _153  and  _155
REMARK   63  A    between atoms: _155  and  _156
REMARK   64  A    between atoms: _155  and  _158
REMARK   65  A    between atoms: _158  and  _159
REMARK   66  A    between atoms: _164  and  _166
REMARK   67  A    between atoms: _166  and  _167
REMARK   68  A    between atoms: _169  and  _171
REMARK   69  A    between atoms: _171  and  _172
REMARK   70  A    between atoms: _171  and  _174
REMARK   71  A    between atoms: _174  and  _175
REMARK   72  A    between atoms: _175  and  _176
REMARK   73  A    between atoms: _176  and  _177
REMARK   74  A    between atoms: _186  and  _188
REMARK   75  A    between atoms: _188  and  _189
REMARK   76  A    between atoms: _191  and  _193
REMARK   77  A    between atoms: _193  and  _194
REMARK   78  A    between atoms: _193  and  _196
REMARK   79  A    between atoms: _196  and  _197
REMARK   80  A    between atoms: _207  and  _209
REMARK   81  A    between atoms: _209  and  _210
REMARK   82  A    between atoms: _213  and  _215
REMARK   83  A    between atoms: _215  and  _216
REMARK   84  A    between atoms: _219  and  _221
REMARK   85  A    between atoms: _221  and  _222
REMARK   86  A    between atoms: _221  and  _224
REMARK   87  A    between atoms: _224  and  _225
REMARK   88  A    between atoms: _228  and  _230
REMARK   89  A    between atoms: _230  and  _231
REMARK   90  A    between atoms: _230  and  _233
REMARK   91  A    between atoms: _233  and  _234
REMARK   92  A    between atoms: _234  and  _235
REMARK   93  A    between atoms: _240  and  _242
REMARK   94  A    between atoms: _242  and  _243
REMARK   95  A    between atoms: _242  and  _245
REMARK   96  A    between atoms: _245  and  _246
REMARK   97  A    between atoms: _249  and  _251
REMARK   98  A    between atoms: _251  and  _252
REMARK   99  A    between atoms: _251  and  _254
REMARK  100  A    between atoms: _254  and  _255
REMARK  101  A    between atoms: _258  and  _260
REMARK  102  A    between atoms: _260  and  _261
REMARK  103  A    between atoms: _260  and  _263
REMARK  104  A    between atoms: _263  and  _264
REMARK  105  A    between atoms: _267  and  _269
REMARK  106  A    between atoms: _269  and  _270
REMARK  107  A    between atoms: _269  and  _272
REMARK  108  A    between atoms: _272  and  _273
REMARK  109  A    between atoms: _275  and  _277
REMARK  110  A    between atoms: _277  and  _278
REMARK  111  A    between atoms: _277  and  _280
REMARK  112  A    between atoms: _283  and  _285
REMARK  113  A    between atoms: _285  and  _286
REMARK  114  A    between atoms: _285  and  _288
REMARK  115  A    between atoms: _288  and  _289
REMARK  116  A    between atoms: _289  and  _290
REMARK  117  A    between atoms: _290  and  _291
REMARK  118  A    between atoms: _291  and  _292
REMARK  119  A    between atoms: _297  and  _298
REMARK  120  A    between atoms: _303  and  _305
REMARK  121  A    between atoms: _305  and  _306
REMARK  122  A    between atoms: _305  and  _308
REMARK  123  A    between atoms: _308  and  _309
REMARK  124  A    between atoms: _314  and  _316
REMARK  125  A    between atoms: _316  and  _317
REMARK  126  A    between atoms: _316  and  _319
REMARK  127  A    between atoms: _319  and  _320
REMARK  128  A    between atoms: _323  and  _325
REMARK  129  A    between atoms: _325  and  _326
REMARK  130  A    between atoms: _325  and  _328
REMARK  131  A    between atoms: _331  and  _333
REMARK  132  A    between atoms: _333  and  _334
REMARK  133  A    between atoms: _336  and  _338
REMARK  134  A    between atoms: _338  and  _339
REMARK  135  A    between atoms: _338  and  _341
REMARK  136  A    between atoms: _341  and  _342
REMARK  137  A    between atoms: _342  and  _343
REMARK  138  A    between atoms: _343  and  _344
REMARK  139  A    between atoms: _344  and  _345
REMARK  140  A    between atoms: _349  and  _351
REMARK  141  A    between atoms: _351  and  _352
REMARK  142  A    between atoms: _351  and  _354
REMARK  143  A    between atoms: _354  and  _355
REMARK  144  A    between atoms: _358  and  _360
REMARK  145  A    between atoms: _360  and  _361
REMARK  146  A    between atoms: _364  and  _366
REMARK  147  A    between atoms: _366  and  _367
REMARK  148  A    between atoms: _369  and  _371
REMARK  149  A    between atoms: _371  and  _372
REMARK  150  A    between atoms: _371  and  _374
REMARK  151  A    between atoms: _374  and  _375
REMARK  152  A    between atoms: _378  and  _380
REMARK  153  A    between atoms: _380  and  _381
REMARK  154  A    between atoms: _380  and  _383
REMARK  155  A    between atoms: _383  and  _384
REMARK  156  A    between atoms: _387  and  _389
REMARK  157  A    between atoms: _389  and  _390
REMARK  158  A    between atoms: _393  and  _395
REMARK  159  A    between atoms: _395  and  _396
REMARK  160  A    between atoms: _395  and  _398
REMARK  161  A    between atoms: _398  and  _399
REMARK  162  A    between atoms: _399  and  _400
REMARK  163  A    between atoms: _403  and  _405
REMARK  164  A    between atoms: _405  and  _406
REMARK  165  A    between atoms: _405  and  _408
REMARK  166  A    between atoms: _411  and  _413
REMARK  167  A    between atoms: _413  and  _414
REMARK  168  A    between atoms: _413  and  _416
REMARK  169  A    between atoms: _416  and  _417
REMARK  170  A    between atoms: _420  and  _422
REMARK  171  A    between atoms: _422  and  _423
REMARK  172  A    between atoms: _425  and  _427
REMARK  173  A    between atoms: _427  and  _428
REMARK  174  A    between atoms: _427  and  _430
REMARK  175  A    between atoms: _433  and  _435
REMARK  176  A    between atoms: _435  and  _436
REMARK  177  A    between atoms: _438  and  _440
REMARK  178  A    between atoms: _440  and  _441
REMARK  179  A    between atoms: _440  and  _443
REMARK  180  A    between atoms: _443  and  _444
REMARK  181  A    between atoms: _447  and  _449
REMARK  182  A    between atoms: _449  and  _450
REMARK  183  A    between atoms: _449  and  _452
REMARK  184  A    between atoms: _452  and  _453
REMARK  185  A    between atoms: _458  and  _460
REMARK  186  A    between atoms: _460  and  _461
REMARK  187  A    between atoms: _460  and  _463
REMARK  188  A    between atoms: _466  and  _468
REMARK  189  A    between atoms: _468  and  _469
REMARK  190  A    between atoms: _468  and  _471
REMARK  191  A    between atoms: _471  and  _472
REMARK  192  A    between atoms: _472  and  _473
REMARK  193  A    between atoms: _478  and  _480
REMARK  194  A    between atoms: _480  and  _481
REMARK  195  A    between atoms: _485  and  _486
REMARK  196  A    between atoms: _491  and  _493
REMARK  197  A    between atoms: _493  and  _494
REMARK  198  A    between atoms: _493  and  _496
REMARK  199  A    between atoms: _496  and  _497
REMARK  200  A    between atoms: _497  and  _498
REMARK  201  A    between atoms: _501  and  _503
REMARK  202  A    between atoms: _503  and  _504
REMARK  203  A    between atoms: _503  and  _506
REMARK  204  A    between atoms: _509  and  _511
REMARK  205  A    between atoms: _511  and  _512
REMARK  206  A    between atoms: _511  and  _514
REMARK  207  A    between atoms: _514  and  _515
REMARK  208  A    between atoms: _519  and  _520
REMARK  209  A    between atoms: _525  and  _527
REMARK  210  A    between atoms: _527  and  _528
REMARK  211  A    between atoms: _527  and  _530
REMARK  212  A    between atoms: _530  and  _531
REMARK  213  A    between atoms: _534  and  _536
REMARK  214  A    between atoms: _536  and  _537
REMARK  215  A    between atoms: _540  and  _542
REMARK  216  A    between atoms: _542  and  _543
REMARK  217  A    between atoms: _542  and  _545
REMARK  218  A    between atoms: _545  and  _546
REMARK  219  A    between atoms: _549  and  _551
REMARK  220  A    between atoms: _551  and  _552
REMARK  221  A    between atoms: _551  and  _554
REMARK  222  A    between atoms: _554  and  _555
REMARK  223  A    between atoms: _557  and  _559
REMARK  224  A    between atoms: _559  and  _560
REMARK  225  A    between atoms: _562  and  _564
REMARK  226  A    between atoms: _564  and  _565
REMARK  227  A    between atoms: _564  and  _567
REMARK  228  A    between atoms: _567  and  _568
REMARK  229  A    between atoms: _571  and  _573
REMARK  230  A    between atoms: _573  and  _574
REMARK  231  A    between atoms: _573  and  _576
REMARK                            x       y       z     vdW  Elec       q    Type
REMARK                         _______ _______ _______ _____ _____    ______ ____
ROOT
ATOM      1  O   HOH     1       0.184   4.116  13.709  0.00  0.00    +0.000 OA
ENDROOT
TORSDOF 0
REMARK  Name = ../refined-set-2016/4xu2/4xu2_pocket.pdb
REMARK  231 active torsions:
REMARK  status: ('A' for Active; 'I' for Inactive)
REMARK    1  A    between atoms: _1  and  _3
REMARK    2  A    between atoms: _3  and  _4
REMARK    3  A    between atoms: _3  and  _6
REMARK    4  A    between atoms: _6  and  _7
REMARK    5  A    between atoms: _10  and  _12
REMARK    6  A    between atoms: _12  and  _13
REMARK    7  A    between atoms: _15  and  _17
REMARK    8  A    between atoms: _17  and  _18
REMARK    9  A    between atoms: _17  and  _20
REMARK   10  A    between atoms: _20  and  _21
REMARK   11  A    between atoms: _23  and  _25
REMARK   12  A    between atoms: _25  and  _26
REMARK   13  A    between atoms: _25  and  _28
REMARK   14  A    between atoms: _28  and  _29
REMARK   15  A    between atoms: _32  and  _34
REMARK   16  A    between atoms: _34  and  _35
REMARK   17  A    between atoms: _34  and  _37
REMARK   18  A    between atoms: _37  and  _38
REMARK   19  A    between atoms: _43  and  _45
REMARK   20  A    between atoms: _45  and  _46
REMARK   21  A    between atoms: _49  and  _51
REMARK   22  A    between atoms: _51  and  _52
REMARK   23  A    between atoms: _51  and  _54
REMARK   24  A    between atoms: _54  and  _55
REMARK   25  A    between atoms: _58  and  _60
REMARK   26  A    between atoms: _60  and  _61
REMARK   27  A    between atoms: _60  and  _63
REMARK   28  A    between atoms: _63  and  _64
REMARK   29  A    between atoms: _67  and  _69
REMARK   30  A    between atoms: _69  and  _70
REMARK   31  A    between atoms: _69  and  _72
REMARK   32  A    between atoms: _72  and  _73
REMARK   33  A    between atoms: _76  and  _78
REMARK   34  A    between atoms: _78  and  _79
REMARK   35  A    between atoms: _82  and  _84
REMARK   36  A    between atoms: _84  and  _85
REMARK   37  A    between atoms: _84  and  _87
REMARK   38  A    between atoms: _87  and  _88
REMARK   39  A    between atoms: _88  and  _89
REMARK   40  A    between atoms: _94  and  _96
REMARK   41  A    between atoms: _96  and  _97
REMARK   42  A    between atoms: _96  and  _99
REMARK   43  A    between atoms: _99  and  _100
REMARK   44  A    between atoms: _103  and  _105
REMARK   45  A    between atoms: _105  and  _106
REMARK   46  A    between atoms: _109  and  _111
REMARK   47  A    between atoms: _111  and  _112
REMARK   48  A    between atoms: _114  and  _116
REMARK   49  A    between atoms: _116  and  _117
REMARK   50  A    between atoms: _116  and  _119
REMARK   51  A    between atoms: _119  and  _120
REMARK   52  A    between atoms: _120  and  _121
REMARK   53  A    between atoms: _121  and  _122
REMARK   54  A    between atoms: _131  and  _133
REMARK   55  A    between atoms: _133  and  _134
REMARK   56  A    between atoms: _136  and  _138
REMARK   57  A    between atoms: _138  and  _139
REMARK   58  A    between atoms: _138  and  _141
REMARK   59  A    between atoms: _141  and  _142
REMARK   60  A    between atoms: _142  and  _143
REMARK   61  A    between atoms: _143  and  _144
REMARK   62  A    between atoms: _153  and  _155
REMARK   63  A    between atoms: _155  and  _156
REMARK   64  A    between atoms: _155  and  _158
REMARK   65  A    between atoms: _158  and  _159
REMARK   66  A    between atoms: _164  and  _166
REMARK   67  A    between atoms: _166  and  _167
REMARK   68  A    between atoms: _169  and  _171
REMARK   69  A    between atoms: _171  and  _172
REMARK   70  A    between atoms: _171  and  _174
REMARK   71  A    between atoms: _174  and  _175
REMARK   72  A    between atoms: _175  and  _176
REMARK   73  A    between atoms: _176  and  _177
REMARK   74  A    between atoms: _186  and  _188
REMARK   75  A    between atoms: _188  and  _189
REMARK   76  A    between atoms: _191  and  _193
REMARK   77  A    between atoms: _193  and  _194
REMARK   78  A    between atoms: _193  and  _196
REMARK   79  A    between atoms: _196  and  _197
REMARK   80  A    between atoms: _207  and  _209
REMARK   81  A    between atoms: _209  and  _210
REMARK   82  A    between atoms: _213  and  _215
REMARK   83  A    between atoms: _215  and  _216
REMARK   84  A    between atoms: _219  and  _221
REMARK   85  A    between atoms: _221  and  _222
REMARK   86  A    between atoms: _221  and  _224
REMARK   87  A    between atoms: _224  and  _225
REMARK   88  A    between atoms: _228  and  _230
REMARK   89  A    between atoms: _230  and  _231
REMARK   90  A    between atoms: _230  and  _233
REMARK   91  A    between atoms: _233  and  _234
REMARK   92  A    between atoms: _234  and  _235
REMARK   93  A    between atoms: _240  and  _242
REMARK   94  A    between atoms: _242  and  _243
REMARK   95  A    between atoms: _242  and  _245
REMARK   96  A    between atoms: _245  and  _246
REMARK   97  A    between atoms: _249  and  _251
REMARK   98  A    between atoms: _251  and  _252
REMARK   99  A    between atoms: _251  and  _254
REMARK  100  A    between atoms: _254  and  _255
REMARK  101  A    between atoms: _258  and  _260
REMARK  102  A    between atoms: _260  and  _261
REMARK  103  A    between atoms: _260  and  _263
REMARK  104  A    between atoms: _263  and  _264
REMARK  105  A    between atoms: _267  and  _269
REMARK  106  A    between atoms: _269  and  _270
REMARK  107  A    between atoms: _269  and  _272
REMARK  108  A    between atoms: _272  and  _273
REMARK  109  A    between atoms: _275  and  _277
REMARK  110  A    between atoms: _277  and  _278
REMARK  111  A    between atoms: _277  and  _280
REMARK  112  A    between atoms: _283  and  _285
REMARK  113  A    between atoms: _285  and  _286
REMARK  114  A    between atoms: _285  and  _288
REMARK  115  A    between atoms: _288  and  _289
REMARK  116  A    between atoms: _289  and  _290
REMARK  117  A    between atoms: _290  and  _291
REMARK  118  A    between atoms: _291  and  _292
REMARK  119  A    between atoms: _297  and  _298
REMARK  120  A    between atoms: _303  and  _305
REMARK  121  A    between atoms: _305  and  _306
REMARK  122  A    between atoms: _305  and  _308
REMARK  123  A    between atoms: _308  and  _309
REMARK  124  A    between atoms: _314  and  _316
REMARK  125  A    between atoms: _316  and  _317
REMARK  126  A    between atoms: _316  and  _319
REMARK  127  A    between atoms: _319  and  _320
REMARK  128  A    between atoms: _323  and  _325
REMARK  129  A    between atoms: _325  and  _326
REMARK  130  A    between atoms: _325  and  _328
REMARK  131  A    between atoms: _331  and  _333
REMARK  132  A    between atoms: _333  and  _334
REMARK  133  A    between atoms: _336  and  _338
REMARK  134  A    between atoms: _338  and  _339
REMARK  135  A    between atoms: _338  and  _341
REMARK  136  A    between atoms: _341  and  _342
REMARK  137  A    between atoms: _342  and  _343
REMARK  138  A    between atoms: _343  and  _344
REMARK  139  A    between atoms: _344  and  _345
REMARK  140  A    between atoms: _349  and  _351
REMARK  141  A    between atoms: _351  and  _352
REMARK  142  A    between atoms: _351  and  _354
REMARK  143  A    between atoms: _354  and  _355
REMARK  144  A    between atoms: _358  and  _360
REMARK  145  A    between atoms: _360  and  _361
REMARK  146  A    between atoms: _364  and  _366
REMARK  147  A    between atoms: _366  and  _367
REMARK  148  A    between atoms: _369  and  _371
REMARK  149  A    between atoms: _371  and  _372
REMARK  150  A    between atoms: _371  and  _374
REMARK  151  A    between atoms: _374  and  _375
REMARK  152  A    between atoms: _378  and  _380
REMARK  153  A    between atoms: _380  and  _381
REMARK  154  A    between atoms: _380  and  _383
REMARK  155  A    between atoms: _383  and  _384
REMARK  156  A    between atoms: _387  and  _389
REMARK  157  A    between atoms: _389  and  _390
REMARK  158  A    between atoms: _393  and  _395
REMARK  159  A    between atoms: _395  and  _396
REMARK  160  A    between atoms: _395  and  _398
REMARK  161  A    between atoms: _398  and  _399
REMARK  162  A    between atoms: _399  and  _400
REMARK  163  A    between atoms: _403  and  _405
REMARK  164  A    between atoms: _405  and  _406
REMARK  165  A    between atoms: _405  and  _408
REMARK  166  A    between atoms: _411  and  _413
REMARK  167  A    between atoms: _413  and  _414
REMARK  168  A    between atoms: _413  and  _416
REMARK  169  A    between atoms: _416  and  _417
REMARK  170  A    between atoms: _420  and  _422
REMARK  171  A    between atoms: _422  and  _423
REMARK  172  A    between atoms: _425  and  _427
REMARK  173  A    between atoms: _427  and  _428
REMARK  174  A    between atoms: _427  and  _430
REMARK  175  A    between atoms: _433  and  _435
REMARK  176  A    between atoms: _435  and  _436
REMARK  177  A    between atoms: _438  and  _440
REMARK  178  A    between atoms: _440  and  _441
REMARK  179  A    between atoms: _440  and  _443
REMARK  180  A    between atoms: _443  and  _444
REMARK  181  A    between atoms: _447  and  _449
REMARK  182  A    between atoms: _449  and  _450
REMARK  183  A    between atoms: _449  and  _452
REMARK  184  A    between atoms: _452  and  _453
REMARK  185  A    between atoms: _458  and  _460
REMARK  186  A    between atoms: _460  and  _461
REMARK  187  A    between atoms: _460  and  _463
REMARK  188  A    between atoms: _466  and  _468
REMARK  189  A    between atoms: _468  and  _469
REMARK  190  A    between atoms: _468  and  _471
REMARK  191  A    between atoms: _471  and  _472
REMARK  192  A    between atoms: _472  and  _473
REMARK  193  A    between atoms: _478  and  _480
REMARK  194  A    between atoms: _480  and  _481
REMARK  195  A    between atoms: _485  and  _486
REMARK  196  A    between atoms: _491  and  _493
REMARK  197  A    between atoms: _493  and  _494
REMARK  198  A    between atoms: _493  and  _496
REMARK  199  A    between atoms: _496  and  _497
REMARK  200  A    between atoms: _497  and  _498
REMARK  201  A    between atoms: _501  and  _503
REMARK  202  A    between atoms: _503  and  _504
REMARK  203  A    between atoms: _503  and  _506
REMARK  204  A    between atoms: _509  and  _511
REMARK  205  A    between atoms: _511  and  _512
REMARK  206  A    between atoms: _511  and  _514
REMARK  207  A    between atoms: _514  and  _515
REMARK  208  A    between atoms: _519  and  _520
REMARK  209  A    between atoms: _525  and  _527
REMARK  210  A    between atoms: _527  and  _528
REMARK  211  A    between atoms: _527  and  _530
REMARK  212  A    between atoms: _530  and  _531
REMARK  213  A    between atoms: _534  and  _536
REMARK  214  A    between atoms: _536  and  _537
REMARK  215  A    between atoms: _540  and  _542
REMARK  216  A    between atoms: _542  and  _543
REMARK  217  A    between atoms: _542  and  _545
REMARK  218  A    between atoms: _545  and  _546
REMARK  219  A    between atoms: _549  and  _551
REMARK  220  A    between atoms: _551  and  _552
REMARK  221  A    between atoms: _551  and  _554
REMARK  222  A    between atoms: _554  and  _555
REMARK  223  A    between atoms: _557  and  _559
REMARK  224  A    between atoms: _559  and  _560
REMARK  225  A    between atoms: _562  and  _564
REMARK  226  A    between atoms: _564  and  _565
REMARK  227  A    between atoms: _564  and  _567
REMARK  228  A    between atoms: _567  and  _568
REMARK  229  A    between atoms: _571  and  _573
REMARK  230  A    between atoms: _573  and  _574
REMARK  231  A    between atoms: _573  and  _576
REMARK                            x       y       z     vdW  Elec       q    Type
REMARK                         _______ _______ _______ _____ _____    ______ ____
ROOT
ATOM      1  O   HOH     1      -8.173   2.006   4.322  0.00  0.00    +0.000 OA
ENDROOT
TORSDOF 0
REMARK  Name = ../refined-set-2016/4xu2/4xu2_pocket.pdb
REMARK  231 active torsions:
REMARK  status: ('A' for Active; 'I' for Inactive)
REMARK    1  A    between atoms: _1  and  _3
REMARK    2  A    between atoms: _3  and  _4
REMARK    3  A    between atoms: _3  and  _6
REMARK    4  A    between atoms: _6  and  _7
REMARK    5  A    between atoms: _10  and  _12
REMARK    6  A    between atoms: _12  and  _13
REMARK    7  A    between atoms: _15  and  _17
REMARK    8  A    between atoms: _17  and  _18
REMARK    9  A    between atoms: _17  and  _20
REMARK   10  A    between atoms: _20  and  _21
REMARK   11  A    between atoms: _23  and  _25
REMARK   12  A    between atoms: _25  and  _26
REMARK   13  A    between atoms: _25  and  _28
REMARK   14  A    between atoms: _28  and  _29
REMARK   15  A    between atoms: _32  and  _34
REMARK   16  A    between atoms: _34  and  _35
REMARK   17  A    between atoms: _34  and  _37
REMARK   18  A    between atoms: _37  and  _38
REMARK   19  A    between atoms: _43  and  _45
REMARK   20  A    between atoms: _45  and  _46
REMARK   21  A    between atoms: _49  and  _51
REMARK   22  A    between atoms: _51  and  _52
REMARK   23  A    between atoms: _51  and  _54
REMARK   24  A    between atoms: _54  and  _55
REMARK   25  A    between atoms: _58  and  _60
REMARK   26  A    between atoms: _60  and  _61
REMARK   27  A    between atoms: _60  and  _63
REMARK   28  A    between atoms: _63  and  _64
REMARK   29  A    between atoms: _67  and  _69
REMARK   30  A    between atoms: _69  and  _70
REMARK   31  A    between atoms: _69  and  _72
REMARK   32  A    between atoms: _72  and  _73
REMARK   33  A    between atoms: _76  and  _78
REMARK   34  A    between atoms: _78  and  _79
REMARK   35  A    between atoms: _82  and  _84
REMARK   36  A    between atoms: _84  and  _85
REMARK   37  A    between atoms: _84  and  _87
REMARK   38  A    between atoms: _87  and  _88
REMARK   39  A    between atoms: _88  and  _89
REMARK   40  A    between atoms: _94  and  _96
REMARK   41  A    between atoms: _96  and  _97
REMARK   42  A    between atoms: _96  and  _99
REMARK   43  A    between atoms: _99  and  _100
REMARK   44  A    between atoms: _103  and  _105
REMARK   45  A    between atoms: _105  and  _106
REMARK   46  A    between atoms: _109  and  _111
REMARK   47  A    between atoms: _111  and  _112
REMARK   48  A    between atoms: _114  and  _116
REMARK   49  A    between atoms: _116  and  _117
REMARK   50  A    between atoms: _116  and  _119
REMARK   51  A    between atoms: _119  and  _120
REMARK   52  A    between atoms: _120  and  _121
REMARK   53  A    between atoms: _121  and  _122
REMARK   54  A    between atoms: _131  and  _133
REMARK   55  A    between atoms: _133  and  _134
REMARK   56  A    between atoms: _136  and  _138
REMARK   57  A    between atoms: _138  and  _139
REMARK   58  A    between atoms: _138  and  _141
REMARK   59  A    between atoms: _141  and  _142
REMARK   60  A    between atoms: _142  and  _143
REMARK   61  A    between atoms: _143  and  _144
REMARK   62  A    between atoms: _153  and  _155
REMARK   63  A    between atoms: _155  and  _156
REMARK   64  A    between atoms: _155  and  _158
REMARK   65  A    between atoms: _158  and  _159
REMARK   66  A    between atoms: _164  and  _166
REMARK   67  A    between atoms: _166  and  _167
REMARK   68  A    between atoms: _169  and  _171
REMARK   69  A    between atoms: _171  and  _172
REMARK   70  A    between atoms: _171  and  _174
REMARK   71  A    between atoms: _174  and  _175
REMARK   72  A    between atoms: _175  and  _176
REMARK   73  A    between atoms: _176  and  _177
REMARK   74  A    between atoms: _186  and  _188
REMARK   75  A    between atoms: _188  and  _189
REMARK   76  A    between atoms: _191  and  _193
REMARK   77  A    between atoms: _193  and  _194
REMARK   78  A    between atoms: _193  and  _196
REMARK   79  A    between atoms: _196  and  _197
REMARK   80  A    between atoms: _207  and  _209
REMARK   81  A    between atoms: _209  and  _210
REMARK   82  A    between atoms: _213  and  _215
REMARK   83  A    between atoms: _215  and  _216
REMARK   84  A    between atoms: _219  and  _221
REMARK   85  A    between atoms: _221  and  _222
REMARK   86  A    between atoms: _221  and  _224
REMARK   87  A    between atoms: _224  and  _225
REMARK   88  A    between atoms: _228  and  _230
REMARK   89  A    between atoms: _230  and  _231
REMARK   90  A    between atoms: _230  and  _233
REMARK   91  A    between atoms: _233  and  _234
REMARK   92  A    between atoms: _234  and  _235
REMARK   93  A    between atoms: _240  and  _242
REMARK   94  A    between atoms: _242  and  _243
REMARK   95  A    between atoms: _242  and  _245
REMARK   96  A    between atoms: _245  and  _246
REMARK   97  A    between atoms: _249  and  _251
REMARK   98  A    between atoms: _251  and  _252
REMARK   99  A    between atoms: _251  and  _254
REMARK  100  A    between atoms: _254  and  _255
REMARK  101  A    between atoms: _258  and  _260
REMARK  102  A    between atoms: _260  and  _261
REMARK  103  A    between atoms: _260  and  _263
REMARK  104  A    between atoms: _263  and  _264
REMARK  105  A    between atoms: _267  and  _269
REMARK  106  A    between atoms: _269  and  _270
REMARK  107  A    between atoms: _269  and  _272
REMARK  108  A    between atoms: _272  and  _273
REMARK  109  A    between atoms: _275  and  _277
REMARK  110  A    between atoms: _277  and  _278
REMARK  111  A    between atoms: _277  and  _280
REMARK  112  A    between atoms: _283  and  _285
REMARK  113  A    between atoms: _285  and  _286
REMARK  114  A    between atoms: _285  and  _288
REMARK  115  A    between atoms: _288  and  _289
REMARK  116  A    between atoms: _289  and  _290
REMARK  117  A    between atoms: _290  and  _291
REMARK  118  A    between atoms: _291  and  _292
REMARK  119  A    between atoms: _297  and  _298
REMARK  120  A    between atoms: _303  and  _305
REMARK  121  A    between atoms: _305  and  _306
REMARK  122  A    between atoms: _305  and  _308
REMARK  123  A    between atoms: _308  and  _309
REMARK  124  A    between atoms: _314  and  _316
REMARK  125  A    between atoms: _316  and  _317
REMARK  126  A    between atoms: _316  and  _319
REMARK  127  A    between atoms: _319  and  _320
REMARK  128  A    between atoms: _323  and  _325
REMARK  129  A    between atoms: _325  and  _326
REMARK  130  A    between atoms: _325  and  _328
REMARK  131  A    between atoms: _331  and  _333
REMARK  132  A    between atoms: _333  and  _334
REMARK  133  A    between atoms: _336  and  _338
REMARK  134  A    between atoms: _338  and  _339
REMARK  135  A    between atoms: _338  and  _341
REMARK  136  A    between atoms: _341  and  _342
REMARK  137  A    between atoms: _342  and  _343
REMARK  138  A    between atoms: _343  and  _344
REMARK  139  A    between atoms: _344  and  _345
REMARK  140  A    between atoms: _349  and  _351
REMARK  141  A    between atoms: _351  and  _352
REMARK  142  A    between atoms: _351  and  _354
REMARK  143  A    between atoms: _354  and  _355
REMARK  144  A    between atoms: _358  and  _360
REMARK  145  A    between atoms: _360  and  _361
REMARK  146  A    between atoms: _364  and  _366
REMARK  147  A    between atoms: _366  and  _367
REMARK  148  A    between atoms: _369  and  _371
REMARK  149  A    between atoms: _371  and  _372
REMARK  150  A    between atoms: _371  and  _374
REMARK  151  A    between atoms: _374  and  _375
REMARK  152  A    between atoms: _378  and  _380
REMARK  153  A    between atoms: _380  and  _381
REMARK  154  A    between atoms: _380  and  _383
REMARK  155  A    between atoms: _383  and  _384
REMARK  156  A    between atoms: _387  and  _389
REMARK  157  A    between atoms: _389  and  _390
REMARK  158  A    between atoms: _393  and  _395
REMARK  159  A    between atoms: _395  and  _396
REMARK  160  A    between atoms: _395  and  _398
REMARK  161  A    between atoms: _398  and  _399
REMARK  162  A    between atoms: _399  and  _400
REMARK  163  A    between atoms: _403  and  _405
REMARK  164  A    between atoms: _405  and  _406
REMARK  165  A    between atoms: _405  and  _408
REMARK  166  A    between atoms: _411  and  _413
REMARK  167  A    between atoms: _413  and  _414
REMARK  168  A    between atoms: _413  and  _416
REMARK  169  A    between atoms: _416  and  _417
REMARK  170  A    between atoms: _420  and  _422
REMARK  171  A    between atoms: _422  and  _423
REMARK  172  A    between atoms: _425  and  _427
REMARK  173  A    between atoms: _427  and  _428
REMARK  174  A    between atoms: _427  and  _430
REMARK  175  A    between atoms: _433  and  _435
REMARK  176  A    between atoms: _435  and  _436
REMARK  177  A    between atoms: _438  and  _440
REMARK  178  A    between atoms: _440  and  _441
REMARK  179  A    between atoms: _440  and  _443
REMARK  180  A    between atoms: _443  and  _444
REMARK  181  A    between atoms: _447  and  _449
REMARK  182  A    between atoms: _449  and  _450
REMARK  183  A    between atoms: _449  and  _452
REMARK  184  A    between atoms: _452  and  _453
REMARK  185  A    between atoms: _458  and  _460
REMARK  186  A    between atoms: _460  and  _461
REMARK  187  A    between atoms: _460  and  _463
REMARK  188  A    between atoms: _466  and  _468
REMARK  189  A    between atoms: _468  and  _469
REMARK  190  A    between atoms: _468  and  _471
REMARK  191  A    between atoms: _471  and  _472
REMARK  192  A    between atoms: _472  and  _473
REMARK  193  A    between atoms: _478  and  _480
REMARK  194  A    between atoms: _480  and  _481
REMARK  195  A    between atoms: _485  and  _486
REMARK  196  A    between atoms: _491  and  _493
REMARK  197  A    between atoms: _493  and  _494
REMARK  198  A    between atoms: _493  and  _496
REMARK  199  A    between atoms: _496  and  _497
REMARK  200  A    between atoms: _497  and  _498
REMARK  201  A    between atoms: _501  and  _503
REMARK  202  A    between atoms: _503  and  _504
REMARK  203  A    between atoms: _503  and  _506
REMARK  204  A    between atoms: _509  and  _511
REMARK  205  A    between atoms: _511  and  _512
REMARK  206  A    between atoms: _511  and  _514
REMARK  207  A    between atoms: _514  and  _515
REMARK  208  A    between atoms: _519  and  _520
REMARK  209  A    between atoms: _525  and  _527
REMARK  210  A    between atoms: _527  and  _528
REMARK  211  A    between atoms: _527  and  _530
REMARK  212  A    between atoms: _530  and  _531
REMARK  213  A    between atoms: _534  and  _536
REMARK  214  A    between atoms: _536  and  _537
REMARK  215  A    between atoms: _540  and  _542
REMARK  216  A    between atoms: _542  and  _543
REMARK  217  A    between atoms: _542  and  _545
REMARK  218  A    between atoms: _545  and  _546
REMARK  219  A    between atoms: _549  and  _551
REMARK  220  A    between atoms: _551  and  _552
REMARK  221  A    between atoms: _551  and  _554
REMARK  222  A    between atoms: _554  and  _555
REMARK  223  A    between atoms: _557  and  _559
REMARK  224  A    between atoms: _559  and  _560
REMARK  225  A    between atoms: _562  and  _564
REMARK  226  A    between atoms: _564  and  _565
REMARK  227  A    between atoms: _564  and  _567
REMARK  228  A    between atoms: _567  and  _568
REMARK  229  A    between atoms: _571  and  _573
REMARK  230  A    between atoms: _573  and  _574
REMARK  231  A    between atoms: _573  and  _576
REMARK                            x       y       z     vdW  Elec       q    Type
REMARK                         _______ _______ _______ _____ _____    ______ ____
ROOT
ATOM      1  O   HOH     1       3.284   1.273  11.520  0.00  0.00    +0.000 OA
ENDROOT
TORSDOF 0
